geometry optimzed in LAMMPS
_audit_creation_date              2020-11-30 
_audit_creation_method            'lammps2cif' 
_symmetry_space_group_name_H-M    'P1' 
_symmetry_Int_Tables_number       1 
_symmetry_cell_setting            triclinic 
loop_ 
_symmetry_equiv_pos_as_xyz 
  x,y,z 
_cell_length_a                    30.66946428 
_cell_length_b                    30.64392982881117 
_cell_length_c                    30.92245169924898 
_cell_angle_alpha                 89.16747347880803 
_cell_angle_beta                  90.70909330290249 
_cell_angle_gamma                 120.29554194505494 
loop_ 
_atom_site_label 
_atom_site_type_symbol 
_atom_site_fract_x 
_atom_site_fract_y 
_atom_site_fract_z 
_atom_site_charge 
C1          C  0.26463708  0.96774967  0.08472942     0.80900
N2          N  0.30259296  0.01353943  0.09738879    -0.77400
C3          C  0.29787897  0.05502813  0.09490385     0.83400
N4          N  0.25452833  0.05061431  0.07935574    -0.77300
C5          C  0.21601760  0.00543395  0.06629447     0.83500
N6          N  0.22122083  0.96360213  0.06795935    -0.79000
C7          C  0.61573805  0.46788912  0.20175017     0.80900
N8          N  0.65237761  0.46702808  0.22713259    -0.77400
C9          C  0.66054822  0.42707522  0.22404733     0.83400
N10         N  0.63081394  0.38828507  0.19775235    -0.77300
C11         C  0.59251052  0.38726296  0.17496921     0.83500
N12         N  0.58560639  0.42750919  0.17667669    -0.79000
C13         C  0.16161041  0.27957661  0.08516121     0.80900
N14         N  0.11499266  0.27408237  0.08900602    -0.77400
C15         C  0.07294173  0.23056337  0.07803197     0.83400
N16         N  0.07720210  0.19191211  0.06279075    -0.77300
C17         C  0.12289257  0.19599437  0.05819274     0.83500
N18         N  0.16589673  0.24043470  0.06869516    -0.79000
C19         C  0.67804359  0.13512437  0.19509670     0.80900
N20         N  0.71284330  0.14829060  0.16343215    -0.77400
C21         C  0.75026880  0.19682997  0.15745262     0.83400
N22         N  0.75277883  0.23282636  0.18393251    -0.77300
C23         C  0.71929642  0.22120713  0.21635741     0.83500
N24         N  0.68180570  0.17173817  0.22252314    -0.79000
C25         C  0.01763509  0.55851803  0.24694939     0.80900
N26         N  0.97671136  0.51192104  0.25679020    -0.77400
C27         C  0.92962037  0.50678838  0.26012786     0.83400
N28         N  0.92446770  0.54796157  0.25499249    -0.77300
C29         C  0.96471037  0.59397554  0.24629086     0.83500
N30         N  0.01050177  0.59847582  0.24154885    -0.79000
C31         C  0.85547536  0.88867543  0.10522032     0.80900
N32         N  0.86501156  0.86562458  0.13857636    -0.77400
C33         C  0.91208658  0.87404034  0.14647434     0.83400
N34         N  0.95045729  0.90647981  0.12045063    -0.77300
C35         C  0.94174362  0.92987590  0.08663935     0.83500
N36         N  0.89372377  0.91992194  0.07819843    -0.79000
C37         C  0.40155751  0.73420410  0.13817026     0.03000
C38         C  0.37280427  0.68061533  0.14292832     0.03000
C39         C  0.39693009  0.65141241  0.13948987     0.03000
C40         C  0.45080434  0.67633344  0.13795170     0.03000
C41         C  0.47966327  0.73040790  0.13518681     0.03000
C42         C  0.45540716  0.75974845  0.13731524     0.03000
O43         O  0.81662975  0.46163422  0.39598119    -0.77800
C44         C  0.82313776  0.32187858  0.40311443     0.83300
O45         O  0.84655837  0.43567681  0.25075941    -0.78900
O46         O  0.72055019  0.25090567  0.28716213    -0.80400
O47         O  0.63911741  0.32015818  0.36783950    -0.80200
O48         O  0.73456070  0.43650211  0.39421650    -0.78800
Zn49       Zn  0.82220061  0.41139249  0.35729087     1.55700
O50         O  0.66626365  0.26503660  0.37021070    -0.80200
Cd51       Cd  0.70560603  0.38438317  0.34516492     1.59700
Cd52       Cd  0.77034164  0.37850392  0.26258865     1.59600
O53         O  0.68563478  0.41664973  0.29436693    -0.80200
O54         O  0.75901781  0.36819718  0.32648290    -1.90700
Cd55       Cd  0.73525393  0.29552249  0.34139825     1.59900
O56         O  0.72238517  0.40378836  0.23777042    -0.80200
O57         O  0.78469599  0.28706239  0.38355712    -0.78800
C58         C  0.88438576  0.46057566  0.27616667     0.83700
C59         C  0.77913970  0.46510713  0.40866318     0.83400
O60         O  0.83891987  0.36850689  0.39567556    -0.77800
C61         C  0.63210121  0.27622827  0.37652237     0.84500
O62         O  0.88077976  0.45282509  0.31686848    -0.77900
C63         C  0.69330625  0.41808964  0.25380427     0.84300
C64         C  0.72935523  0.26202929  0.24720714     0.84700
O65         O  0.74979436  0.30797062  0.23347248    -0.80300
C66         C  0.64388770  0.84419485  0.50589802     0.80900
N67         N  0.60742257  0.80945589  0.53302616    -0.77400
C68         C  0.55900822  0.80064262  0.52978137     0.83400
N69         N  0.54804173  0.82660425  0.50002340    -0.77300
C70         C  0.58333026  0.85998499  0.47242324     0.83500
N71         N  0.63125714  0.86906837  0.47611066    -0.79000
C72         C  0.49776077  0.19574529  0.41278026     0.80900
N73         N  0.49572425  0.15045119  0.41566412    -0.77400
C74         C  0.53680861  0.14681359  0.40694899     0.83400
N75         N  0.58002847  0.18858886  0.39535964    -0.77300
C76         C  0.58341744  0.23431138  0.39230299     0.83500
N77         N  0.54169783  0.23817786  0.40039256    -0.79000
C78         C  0.32296001  0.43618314  0.54665598     0.80900
N79         N  0.36587584  0.43359807  0.54985046    -0.77400
C80         C  0.40970473  0.47360808  0.56345413     0.83400
N81         N  0.41073106  0.51699196  0.57238718    -0.77300
C82         C  0.36880061  0.52108576  0.56969462     0.83500
N83         N  0.32394327  0.48011415  0.55713868    -0.79000
C84         C  0.82950933  0.58629854  0.46697513     0.80900
N85         N  0.82742511  0.55030050  0.44023523    -0.77400
C86         C  0.78620429  0.50285454  0.44086654     0.83400
N87         N  0.74722193  0.49209353  0.46752250    -0.77300
C88         C  0.74907508  0.52733857  0.49456457     0.83500
N89         N  0.78995075  0.57468002  0.49344325    -0.79000
C90         C  0.23574790  0.76109715  0.52296087     0.80900
N91         N  0.19057330  0.71712608  0.52469781    -0.77400
C92         C  0.18738333  0.67423185  0.54070925     0.83400
N93         N  0.22976000  0.67529618  0.55467512    -0.77300
C94         C  0.27541108  0.71820386  0.55346607     0.83500
N95         N  0.27856757  0.76205515  0.53828066    -0.79000
C96         C  0.88118298  0.26047771  0.46830372     0.80900
N97         N  0.90656723  0.29701809  0.49831497    -0.77400
C98         C  0.90385239  0.33985707  0.49784281     0.83400
N99         N  0.87564583  0.34582696  0.46699896    -0.77300
C100        C  0.84998515  0.31008472  0.43687216     0.83500
N101        N  0.85322905  0.26730766  0.43697314    -0.79000
C102        C  0.04782487  0.96576128  0.46546801     0.03000
C103        C  0.01902630  0.99074378  0.46677718     0.03000
C104        C  0.04455390  0.04478491  0.46520261     0.03000
C105        C  0.09854484  0.07357843  0.46468038     0.03000
C106        C  0.12694599  0.04838150  0.46280652     0.03000
C107        C  0.10173842  0.99461251  0.46539484     0.03000
C108        C  0.56639882  0.60547521  0.76048030     0.80900
N109        N  0.53515445  0.61231452  0.73275322    -0.77400
C110        C  0.52830740  0.65276457  0.73813768     0.83400
N111        N  0.55375316  0.68633166  0.76994690    -0.77300
C112        C  0.58625489  0.68080452  0.79631158     0.83500
N113        N  0.59197365  0.64010801  0.79159318    -0.79000
C114        C  0.90465062  0.09790029  0.87470733     0.80900
N115        N  0.86062057  0.05290933  0.87442079    -0.77400
C116        C  0.85920672  0.00943125  0.88561744     0.83400
N117        N  0.90260168  0.01107975  0.89710272    -0.77300
C118        C  0.94733742  0.05518105  0.89770917     0.83500
N119        N  0.94861018  0.09938764  0.88684852    -0.79000
C120        C  0.49350971  0.93926487  0.74323938     0.80900
N121        N  0.49220786  0.90112585  0.71989366    -0.77400
C122        C  0.45265220  0.85305094  0.72513879     0.83400
N123        N  0.41519790  0.84379499  0.75305394    -0.77300
C124        C  0.41623253  0.88149066  0.77606845     0.83500
N125        N  0.45532449  0.92916478  0.77071993    -0.79000
C126        C  0.99532300  0.77880989  0.87005247     0.80900
N127        N  0.03944459  0.77858056  0.86779450    -0.77400
C128        C  0.08349849  0.81848121  0.88085368     0.83400
N129        N  0.08361207  0.85971938  0.89520811    -0.77300
C130        C  0.04075932  0.86184140  0.89836142     0.83500
N131        N  0.99550064  0.82073666  0.88601964    -0.79000
C132        C  0.32834216  0.19081782  0.85789316     0.80900
N133        N  0.28576554  0.14910703  0.87387246    -0.77400
C134        C  0.24374906  0.15261301  0.88234835     0.83400
N135        N  0.24566549  0.19728655  0.87584053    -0.77300
C136        C  0.28765934  0.23844764  0.86127409     0.83500
N137        N  0.32892688  0.23521024  0.85256242    -0.79000
C138        C  0.18165141  0.53750319  0.77377886     0.80900
N139        N  0.21547347  0.57132405  0.74458474    -0.77400
C140        C  0.26538844  0.58565602  0.74835200     0.83400
N141        N  0.28053701  0.56562967  0.78030309    -0.77300
C142        C  0.24731239  0.53077398  0.80832639     0.83500
N143        N  0.19785334  0.51665566  0.80450085    -0.79000
C144        C  0.72436148  0.30596637  0.79874224     0.03000
C145        C  0.69571485  0.33083241  0.79891204     0.03000
C146        C  0.72062544  0.38436155  0.79349587     0.03000
C147        C  0.77463991  0.41340787  0.79288540     0.03000
C148        C  0.80317475  0.38821721  0.79310649     0.03000
C149        C  0.77813447  0.33462833  0.79698021     0.03000
O150        O  0.98246961  0.00909363  0.92785544    -0.77800
C151        C  0.04806605  0.90985013  0.91650198     0.83300
O152        O  0.02706960  0.99066360  0.07122433    -0.78900
O153        O  0.16958956  0.99610634  0.00275687    -0.80400
O154        O  0.16319946  0.12396836  0.91100468    -0.80200
O155        O  0.03526201  0.09156849  0.91782349    -0.78800
Zn156      Zn  0.01604115  0.97745475  0.96153517     1.55700
O157        O  0.19256316  0.07059690  0.91623723    -0.80200
Cd158      Cd  0.09947183  0.09693498  0.94901218     1.59700
Cd159      Cd  0.09505951  0.04064913  0.04060077     1.59600
O160        O  0.11875547  0.15215303  0.99535982    -0.80200
O161        O  0.08503882  0.03105742  0.97618769    -1.90700
Cd162      Cd  0.13392940  0.01212115  0.95301121     1.59900
O163        O  0.11534515  0.11476660  0.05863557    -0.80200
O164        O  0.09407854  0.94498893  0.92056330    -0.78800
C165        C  0.98313063  0.95978410  0.05634651     0.83700
C166        C  0.99137582  0.05244409  0.91450627     0.83400
O167        O  0.01188772  0.91523813  0.93017722    -0.77800
C168        C  0.19715639  0.11253774  0.90347394     0.84200
O169        O  0.97441684  0.95218019  0.01598059    -0.77900
C170        C  0.12236480  0.15328589  0.03643135     0.84300
C171        C  0.17491422  0.00664902  0.04279065     0.84700
O172        O  0.15106607  0.02532028  0.06132099    -0.80300
O173        O  0.30844182  0.67083303  0.58576777    -0.77800
C174        C  0.37555861  0.57027741  0.58338240     0.83300
O175        O  0.34802226  0.64845653  0.73078330    -0.78900
O176        O  0.49590272  0.65727404  0.66888453    -0.80400
O177        O  0.48591107  0.78153476  0.56879258    -0.80200
O178        O  0.36168176  0.75378637  0.57908001    -0.78800
Zn179      Zn  0.33978760  0.63827610  0.62247391     1.55700
O180        O  0.51628232  0.72926373  0.57791255    -0.80200
Cd181      Cd  0.42547738  0.75816899  0.61092553     1.59700
Cd182      Cd  0.41611984  0.69744043  0.70191171     1.59600
O183        O  0.44772896  0.81346532  0.65845771    -0.80200
O184        O  0.40925645  0.69113821  0.63782098    -1.90700
Cd185      Cd  0.46052744  0.67340070  0.61815248     1.59900
O186        O  0.43498180  0.76946830  0.71994004    -0.80200
O187        O  0.42141336  0.60530608  0.58800911    -0.78800
C188        C  0.30387700  0.61794034  0.71649374     0.83700
C189        C  0.31822603  0.71475609  0.57295056     0.83400
O190        O  0.33869531  0.57636874  0.59377138    -0.77800
C191        C  0.51864852  0.76857869  0.56077985     0.84200
O192        O  0.29445421  0.61117786  0.67608922    -0.77900
C193        C  0.44665249  0.81040023  0.69966186     0.84300
C194        C  0.49539709  0.66280979  0.70954392     0.84700
O195        O  0.46901068  0.67960165  0.72640602    -0.80300
C196        C  0.05500472  0.53362666  0.76637819    -0.13600
C197        C  0.02108587  0.48213501  0.77480254     0.16700
C198        C  0.04019955  0.44891728  0.77959176     0.03000
C199        C  0.09247414  0.46814568  0.77843219    -0.12200
C200        C  0.12669803  0.51982023  0.77149570    -0.03200
C201        C  0.10761173  0.55290859  0.76519400     0.02300
C202        C  0.96629358  0.46392248  0.78129410     0.09100
N203        N  0.00697696  0.39547492  0.78482479     0.65500
H204        H  0.10656606  0.44223936  0.78254845     0.18400
N205        N  0.14100030  0.60638077  0.76093990     0.75900
H206        H  0.04066561  0.55939322  0.76303779     0.09900
C207        C  0.94245611  0.44363830  0.82142838     0.03600
C208        C  0.88969552  0.42102792  0.82465311    -0.05100
C209        C  0.85969213  0.41758614  0.78871774    -0.23500
C210        C  0.88382116  0.43937225  0.74878284     0.12800
C211        C  0.93681429  0.46296227  0.74592856    -0.12700
N212        N  0.97123226  0.44548819  0.85908031     0.64500
H213        H  0.87168999  0.40531560  0.85542548     0.12400
N214        N  0.85543746  0.43535529  0.71018671     0.61200
H215        H  0.95499244  0.47794137  0.71507005     0.08500
O216        O  0.17535806  0.62969311  0.78871784    -0.40300
O217        O  0.13223124  0.63124539  0.73278418    -0.39500
O218        O  0.97021233  0.37222522  0.75922286    -0.39500
O219        O  0.01838862  0.37041998  0.81059827    -0.37200
O220        O  0.81473407  0.39509079  0.70201775    -0.38100
O221        O  0.87425095  0.46946863  0.68141109    -0.34300
O222        O  0.01222168  0.48523596  0.86785886    -0.35700
O223        O  0.95376437  0.40886706  0.88555418    -0.39900
C224        C  0.44958248  0.22776294  0.79961307    -0.13600
C225        C  0.47823129  0.22066253  0.83167212     0.16700
C226        C  0.45413229  0.19609974  0.87091156     0.03000
C227        C  0.40305537  0.18183215  0.87772971    -0.12200
C228        C  0.37529228  0.19089691  0.84605473    -0.03200
C229        C  0.39872839  0.21276962  0.80612221     0.02300
C230        C  0.53409601  0.24434709  0.82473430     0.09100
N231        N  0.48114408  0.18632244  0.90430624     0.65500
H232        H  0.38570862  0.16585751  0.90866599     0.18400
N233        N  0.37179783  0.22226216  0.77252977     0.75900
H234        H  0.46740629  0.24671238  0.76958379     0.09900
C235        C  0.55416908  0.23597675  0.78674531     0.03600
C236        C  0.60639931  0.26529460  0.77864535    -0.05100
C237        C  0.63993905  0.30123106  0.80835895    -0.23500
C238        C  0.62008633  0.30823400  0.84716845     0.12800
C239        C  0.56754992  0.28056033  0.85425886    -0.12700
N240        N  0.52229015  0.19741503  0.75650152     0.64500
H241        H  0.62116873  0.25949806  0.74903574     0.12400
N242        N  0.65246359  0.34275547  0.87989848     0.61200
H243        H  0.55247124  0.28743310  0.88321180     0.08500
O244        O  0.39177112  0.26473548  0.75361278    -0.40300
O245        O  0.32876549  0.18757301  0.76052764    -0.39500
O246        O  0.47306943  0.19020552  0.94361423    -0.39500
O247        O  0.51006371  0.16980787  0.89477917    -0.37200
O248        O  0.69525513  0.34789482  0.88794499    -0.38100
O249        O  0.63641510  0.36464881  0.90377775    -0.34300
O250        O  0.53297292  0.20292069  0.71675888    -0.35700
O251        O  0.48637826  0.15566235  0.76983794    -0.39900
C252        C  0.24555929  0.33353472  0.84489206    -0.13600
C253        C  0.28556238  0.37673928  0.86382672     0.16700
C254        C  0.32736569  0.37467965  0.88135350     0.03000
C255        C  0.32887410  0.32981316  0.87742873    -0.12200
C256        C  0.28870452  0.28682161  0.85830670    -0.03200
C257        C  0.24664124  0.28877650  0.84197306     0.02300
C258        C  0.28363375  0.42393945  0.86030747     0.09100
N259        N  0.36761277  0.41694839  0.90374546     0.65500
H260        H  0.36024763  0.32752312  0.89140099     0.18400
N261        N  0.20534587  0.24602635  0.82131092     0.75900
H262        H  0.21386059  0.33515010  0.83076319     0.09900
C263        C  0.32015039  0.46638340  0.83683243     0.03600
C264        C  0.31036908  0.50512409  0.82608625    -0.05100
C265        C  0.26357979  0.50097342  0.83546504    -0.23500
C266        C  0.22991083  0.46150782  0.86328709     0.12800
C267        C  0.24035824  0.42345243  0.87528974    -0.12700
N268        N  0.36468530  0.46873626  0.81973024     0.64500
H269        H  0.33738254  0.53570643  0.80573883     0.12400
N270        N  0.18420728  0.45829069  0.87809400     0.61200
H271        H  0.21315264  0.39170857  0.89459383     0.08500
O272        O  0.21358103  0.22386356  0.79112193    -0.40300
O273        O  0.16041689  0.23296326  0.83072008    -0.39500
O274        O  0.35860186  0.44570354  0.92598958    -0.39500
O275        O  0.41151418  0.42302918  0.90458542    -0.37200
O276        O  0.14344592  0.41633655  0.87855391    -0.38100
O277        O  0.18544735  0.49636803  0.89454683    -0.34300
O278        O  0.36132270  0.43194535  0.79902207    -0.35700
O279        O  0.40577386  0.51037097  0.81891958    -0.39900
C280        C  0.87363379  0.65148158  0.86761014    -0.13600
C281        C  0.88325463  0.62926359  0.83205512     0.16700
C282        C  0.92498307  0.66023256  0.80538705     0.03000
C283        C  0.95659431  0.71140088  0.81551205    -0.12200
C284        C  0.94972049  0.73274726  0.85303043    -0.03200
C285        C  0.90644483  0.70276774  0.87832601     0.02300
C286        C  0.85091667  0.57378457  0.82324021     0.09100
N287        N  0.93858556  0.63944335  0.77017805     0.65500
H288        H  0.99000906  0.73360460  0.79603218     0.18400
N289        N  0.89703649  0.72283590  0.91627651     0.75900
H290        H  0.84101881  0.62859984  0.88768652     0.09900
C291        C  0.84739064  0.53718842  0.85326358     0.03600
C292        C  0.82333063  0.48610558  0.84169551    -0.05100
C293        C  0.80157900  0.46958434  0.80049598    -0.23500
C294        C  0.80312500  0.50607901  0.77042443     0.12800
C295        C  0.82785149  0.55751754  0.78249315    -0.12700
N296        N  0.86959009  0.55152049  0.89531053     0.64500
H297        H  0.82129296  0.45874606  0.86541798     0.12400
N298        N  0.78044781  0.49257298  0.72794819     0.61200
H299        H  0.83048856  0.58568952  0.75943609     0.08500
O300        O  0.89016719  0.70021277  0.95216338    -0.40300
O301        O  0.89048098  0.76024893  0.91317326    -0.39500
O302        O  0.95300876  0.66337722  0.73477709    -0.39500
O303        O  0.94268718  0.60081065  0.77617958    -0.37200
O304        O  0.77036897  0.45147244  0.71083832    -0.38100
O305        O  0.77244134  0.52305129  0.70620667    -0.34300
O306        O  0.84275344  0.54939182  0.92677791    -0.35700
O307        O  0.91307535  0.55799765  0.90227259    -0.39900
C308        C  0.64318369  0.16216108  0.81406918    -0.13600
C309        C  0.64399938  0.14580688  0.77209292     0.16700
C310        C  0.67121853  0.18187742  0.73960981     0.03000
C311        C  0.69667893  0.23333609  0.74994706    -0.12200
C312        C  0.69810488  0.25000287  0.79225040    -0.03200
C313        C  0.67002015  0.21373315  0.82467124     0.02300
C314        C  0.60825349  0.09242192  0.76092209     0.09100
N315        N  0.67159649  0.16698769  0.69577744     0.65500
H316        H  0.71350066  0.26094921  0.72424693     0.18400
N317        N  0.66478870  0.22833998  0.86723954     0.75900
H318        H  0.62027474  0.13457015  0.83851025     0.09900
C319        C  0.61993920  0.05350748  0.76641010     0.03600
C320        C  0.58348557  0.00361741  0.75542806    -0.05100
C321        C  0.53552087  0.99192564  0.74029847    -0.23500
C322        C  0.52497445  0.03127563  0.73303233     0.12800
C323        C  0.56136031  0.08096273  0.74343132    -0.12700
N324        N  0.66757713  0.06350655  0.78415495     0.64500
H325        H  0.59114607  0.97328239  0.76205386     0.12400
N326        N  0.47694812  0.02095654  0.71604428     0.61200
H327        H  0.55285265  0.11097489  0.73828476     0.08500
O328        O  0.62173277  0.20824292  0.88442972    -0.40300
O329        O  0.70328279  0.25502461  0.89014216    -0.39500
O330        O  0.67239413  0.19441669  0.66457791    -0.39500
O331        O  0.67566385  0.12884332  0.68811660    -0.37200
O332        O  0.45523927  0.04306237  0.73119840    -0.38100
O333        O  0.45766389  0.99221708  0.68397870    -0.34300
O334        O  0.68593526  0.09117200  0.81693821    -0.35700
O335        O  0.68824865  0.03971377  0.77049792    -0.39900
C336        C  0.22287187  0.86233622  0.88510857    -0.13600
C337        C  0.22718444  0.83775507  0.84900344     0.16700
C338        C  0.18328549  0.80165819  0.82705799     0.03000
C339        C  0.13604474  0.79256723  0.84067176    -0.12200
C340        C  0.13189718  0.81986998  0.87486976    -0.03200
C341        C  0.17573000  0.85355030  0.89854412     0.02300
C342        C  0.27795624  0.85068135  0.83444486     0.09100
N343        N  0.18618701  0.77653865  0.78927189     0.65500
H344        H  0.10282430  0.76689458  0.82215968     0.18400
N345        N  0.17304383  0.87895922  0.93618744     0.75900
H346        H  0.25652750  0.88877161  0.90277882     0.09900
C347        C  0.31337227  0.90019911  0.82081566     0.03600
C348        C  0.36023548  0.91032412  0.80528893    -0.05100
C349        C  0.37202605  0.87172711  0.80209643    -0.23500
C350        C  0.33777638  0.82295686  0.81859544     0.12800
C351        C  0.29091870  0.81293031  0.83420166    -0.12700
N352        N  0.30116937  0.93970185  0.81993230     0.64500
H353        H  0.38597673  0.94780860  0.79266492     0.12400
N354        N  0.35017471  0.78359274  0.82024338     0.61200
H355        H  0.26427714  0.77540761  0.84623338     0.08500
O356        O  0.14268302  0.85406873  0.96619435    -0.40300
O357        O  0.20425208  0.92536345  0.94142349    -0.39500
O358        O  0.15429892  0.73044761  0.78343408    -0.39500
O359        O  0.21656411  0.80155858  0.75931106    -0.37200
O360        O  0.39258615  0.79269833  0.83476033    -0.38100
O361        O  0.31689359  0.73855560  0.81199054    -0.34300
O362        O  0.33302708  0.98336770  0.83292822    -0.35700
O363        O  0.26084303  0.93254404  0.80211685    -0.39900
C364        C  0.90844137  0.22464347  0.87320999    -0.13600
C365        C  0.87507497  0.21705303  0.83846617     0.16700
C366        C  0.85764397  0.17319897  0.81305144     0.03000
C367        C  0.87218803  0.13774914  0.82378095    -0.12200
C368        C  0.90214219  0.14318880  0.86030467    -0.03200
C369        C  0.92136698  0.18776496  0.88480741     0.02300
C370        C  0.85687258  0.25352710  0.82963265     0.09100
N371        N  0.82266443  0.16224519  0.77783678     0.65500
H372        H  0.85716417  0.10368706  0.80475719     0.18400
N373        N  0.95079935  0.19452815  0.92309322     0.75900
H374        H  0.92246794  0.25822772  0.89275349     0.09900
C375        C  0.83173046  0.26536048  0.86135914     0.03600
C376        C  0.80939157  0.29421729  0.84976768    -0.05100
C377        C  0.80795478  0.30873966  0.80671369    -0.23500
C378        C  0.83615919  0.30002622  0.77557654     0.12800
C379        C  0.86104275  0.27361890  0.78766169    -0.12700
N380        N  0.82601986  0.24623518  0.90481320     0.64500
H381        H  0.79190565  0.30459352  0.87458196     0.12400
N382        N  0.83942504  0.31654335  0.73156013     0.61200
H383        H  0.88142516  0.26606628  0.76328561     0.08500
O384        O  0.93228327  0.16359487  0.95425303    -0.40300
O385        O  0.99315416  0.23419485  0.92767636    -0.39500
O386        O  0.82721540  0.14295612  0.74361541    -0.39500
O387        O  0.78384207  0.16592839  0.78270198    -0.37200
O388        O  0.80029068  0.29781248  0.70826265    -0.38100
O389        O  0.88190764  0.33993883  0.71339449    -0.34300
O390        O  0.83357166  0.27503036  0.93630541    -0.35700
O391        O  0.80660263  0.19936133  0.91164449    -0.39900
C392        C  0.57707091  0.49084982  0.79082214    -0.13600
C393        C  0.61596682  0.49713762  0.76339310     0.16700
C394        C  0.63235412  0.53439595  0.73046706     0.03000
C395        C  0.61246951  0.56690973  0.72759579    -0.12200
C396        C  0.57591892  0.56276941  0.75690225    -0.03200
C397        C  0.55715359  0.52333799  0.78819136     0.02300
C398        C  0.64139615  0.46707818  0.77173915     0.09100
N399        N  0.67196486  0.54223673  0.70189994     0.65500
H400        H  0.62780138  0.59740948  0.70393933     0.18400
N401        N  0.51869549  0.51621897  0.81815665     0.75900
H402        H  0.56375651  0.46191596  0.81585895     0.09900
C403        C  0.66954581  0.47347447  0.80999325     0.03600
C404        C  0.69277080  0.44452141  0.81721879    -0.05100
C405        C  0.69002513  0.40986885  0.78647658    -0.23500
C406        C  0.65947476  0.40141661  0.74890670     0.12800
C407        C  0.63579302  0.43029934  0.74219595    -0.12700
N408        N  0.67630007  0.51048847  0.84120331     0.64500
H409        H  0.71470061  0.45043291  0.84653073     0.12400
N410        N  0.65182754  0.36414387  0.71717229     0.61200
H411        H  0.61312117  0.42442068  0.71336122     0.08500
O412        O  0.52466858  0.55204977  0.84183782    -0.40300
O413        O  0.48208588  0.47231510  0.82531920    -0.39500
O414        O  0.66123731  0.51934146  0.66630907    -0.39500
O415        O  0.71626513  0.57815142  0.70865188    -0.37200
O416        O  0.68664987  0.35547455  0.70773644    -0.38100
O417        O  0.61060814  0.34151131  0.69653244    -0.34300
O418        O  0.66647607  0.49801208  0.88049994    -0.35700
O419        O  0.69708423  0.55653129  0.83037641    -0.39900
C420        C  0.72714494  0.90311538  0.85764319    -0.13600
C421        C  0.72402157  0.86325140  0.88302686     0.16700
C422        C  0.76346987  0.87301843  0.91243683     0.03000
C423        C  0.80679506  0.92121809  0.91300364    -0.12200
C424        C  0.81114470  0.96037602  0.88574891    -0.03200
C425        C  0.76994482  0.95136270  0.85885161     0.02300
C426        C  0.68468352  0.81087481  0.87171402     0.09100
N427        N  0.76029465  0.83430819  0.94130410     0.65500
H428        H  0.83733805  0.92815408  0.93503508     0.18400
N429        N  0.77235882  0.98938035  0.82995129     0.75900
H430        H  0.69767430  0.89594539  0.83428658     0.09900
C431        C  0.63369341  0.79729559  0.86519535     0.03600
C432        C  0.60153413  0.75323264  0.84217686    -0.05100
C433        C  0.61880447  0.72185086  0.82643623    -0.23500
C434        C  0.66848681  0.73324910  0.83660441     0.12800
C435        C  0.70072389  0.77745224  0.85896957    -0.12700
N436        N  0.61465212  0.82851220  0.88065470     0.64500
H437        H  0.56296869  0.74389348  0.83577362     0.12400
N438        N  0.68869288  0.70348926  0.82068146     0.61200
H439        H  0.73993167  0.78780674  0.86304625     0.08500
O440        O  0.74169448  0.00506273  0.83405461    -0.40300
O441        O  0.79983749  0.00170799  0.79679975    -0.39500
O442        O  0.79947921  0.83266905  0.95134067    -0.39500
O443        O  0.71892547  0.80363452  0.95907762    -0.37200
O444        O  0.70307611  0.68135832  0.84697433    -0.38100
O445        O  0.69940905  0.70577610  0.78112187    -0.34300
O446        O  0.58064189  0.83164944  0.85983771    -0.35700
O447        O  0.62951719  0.85061702  0.91651871    -0.39900
C448        C  0.91183427  0.15985822  0.50278400    -0.13600
C449        C  0.93873981  0.15894469  0.46664719     0.16700
C450        C  0.94013565  0.18677418  0.42920207     0.03000
C451        C  0.91610874  0.21542714  0.42892468    -0.12200
C452        C  0.89215109  0.21878027  0.46591601    -0.03200
C453        C  0.88927033  0.18998913  0.50295415     0.02300
C454        C  0.96437719  0.12829614  0.46798675     0.09100
N455        N  0.97007812  0.19053049  0.39274889     0.65500
H456        H  0.92010466  0.23875463  0.40085493     0.18400
N457        N  0.86376565  0.19130473  0.54097760     0.75900
H458        H  0.90872333  0.13739535  0.53121508     0.09900
C459        C  0.99665551  0.13140839  0.50241229     0.03600
C460        C  0.02014658  0.10216519  0.50152244    -0.05100
C461        C  0.01463531  0.07156973  0.46601199    -0.23500
C462        C  0.98041038  0.06669628  0.43248971     0.12800
C463        C  0.95547582  0.09450514  0.43435232    -0.12700
N464        N  0.00768707  0.16542784  0.53765445     0.64500
H465        H  0.04452114  0.10475162  0.52821587     0.12400
N466        N  0.97068292  0.03450709  0.39600837     0.61200
H467        H  0.92938757  0.09039216  0.40863725     0.08500
O468        O  0.88482942  0.19822656  0.57756664    -0.40300
O469        O  0.81886818  0.18230732  0.53839695    -0.39500
O470        O  0.94983361  0.17787591  0.35581680    -0.39500
O471        O  0.01754976  0.21575437  0.39592334    -0.37200
O472        O  0.00672702  0.03573697  0.37580724    -0.38100
O473        O  0.92680860  0.01063184  0.37990019    -0.34300
O474        O  0.00766686  0.15073517  0.57601056    -0.35700
O475        O  0.02279612  0.21151015  0.53030477    -0.39900
C476        C  0.19527873  0.84260802  0.46076420    -0.13600
C477        C  0.20885885  0.88260638  0.48946608     0.16700
C478        C  0.23917695  0.88665191  0.52596955     0.03000
C479        C  0.25153168  0.84868878  0.53452438    -0.12200
C480        C  0.23537967  0.80719997  0.50700731    -0.03200
C481        C  0.20885210  0.80556570  0.46857270     0.02300
C482        C  0.18586796  0.91565476  0.48338980     0.09100
N483        N  0.25686258  0.92849440  0.55499295     0.65500
H484        H  0.27195574  0.85039016  0.56389232     0.18400
N485        N  0.19498007  0.76619384  0.43742325     0.75900
H486        H  0.17262453  0.83942309  0.43252445     0.09900
C487        C  0.18851399  0.94090211  0.44381643     0.03600
C488        C  0.16130961  0.96658765  0.43883571    -0.05100
C489        C  0.13169615  0.96831166  0.47240360    -0.23500
C490        C  0.13052143  0.94463121  0.51246152     0.12800
C491        C  0.15676445  0.91806275  0.51703473    -0.12700
N492        N  0.21894128  0.94137443  0.40862910     0.64500
H493        H  0.16340374  0.98564601  0.40849171     0.12400
N494        N  0.10336557  0.94749382  0.54895315     0.61200
H495        H  0.15432427  0.89876788  0.54732970     0.08500
O496        O  0.22437425  0.74962414  0.42995225    -0.40300
O497        O  0.15634569  0.75201064  0.41379230    -0.39500
O498        O  0.25998007  0.92206711  0.59508391    -0.39500
O499        O  0.27308921  0.97267365  0.54035023    -0.37200
O500        O  0.08451785  0.91193935  0.57645532    -0.38100
O501        O  0.10230042  0.98737913  0.55623169    -0.34300
O502        O  0.20469554  0.94063779  0.37002419    -0.35700
O503        O  0.26209777  0.94701734  0.41579896    -0.39900
C504        C  0.05400243  0.56476595  0.52237946    -0.13600
C505        C  0.04821240  0.53378608  0.55838279     0.16700
C506        C  0.08658017  0.55114974  0.59021200     0.03000
C507        C  0.13123374  0.59744054  0.58360398    -0.12200
C508        C  0.13819412  0.62719309  0.54637729    -0.03200
C509        C  0.09858120  0.61100287  0.51581378     0.02300
C510        C  0.00667328  0.48035824  0.55704800     0.09100
N511        N  0.08082623  0.52224353  0.62901537     0.65500
H512        H  0.16085596  0.61048876  0.60789405     0.18400
N513        N  0.10462067  0.63818339  0.47608758     0.75900
H514        H  0.02521038  0.55099408  0.49730939     0.09900
C515        C  0.95640910  0.46789820  0.54849669     0.03600
C516        C  0.92204743  0.41972280  0.53275567    -0.05100
C517        C  0.93662029  0.38362343  0.52563476    -0.23500
C518        C  0.98516719  0.39439185  0.53918844     0.12800
C519        C  0.01962187  0.44253748  0.55472303    -0.12700
N520        N  0.94067242  0.50451419  0.55352853     0.64500
H521        H  0.88423693  0.41118490  0.52401487     0.12400
N522        N  0.00224446  0.35935919  0.53266223     0.61200
H523        H  0.05820040  0.45181473  0.56102175     0.08500
O524        O  0.06848751  0.64254420  0.46115223    -0.40300
O525        O  0.14190136  0.64925796  0.45215254    -0.39500
O526        O  0.11899980  0.52499136  0.64763759    -0.39500
O527        O  0.03821569  0.49726734  0.64685695    -0.37200
O528        O  0.01947762  0.35741020  0.49633892    -0.38100
O529        O  0.00755179  0.33643465  0.56468874    -0.34300
O530        O  0.90708076  0.50382583  0.52904387    -0.35700
O531        O  0.95797908  0.53567953  0.58417381    -0.39900
C532        C  0.99800486  0.82843971  0.43089688    -0.13600
C533        C  0.96702022  0.80180666  0.46594697     0.16700
C534        C  0.96471976  0.82879312  0.50147750     0.03000
C535        C  0.99197471  0.88180180  0.50065596    -0.12200
C536        C  0.02163282  0.90903724  0.46491612    -0.03200
C537        C  0.02554750  0.88174771  0.42961327     0.02300
C538        C  0.93340473  0.74611831  0.46310961     0.09100
N539        N  0.93394180  0.80282071  0.53819126     0.65500
H540        H  0.98989474  0.90206551  0.52823921     0.18400
N541        N  0.05565455  0.90662092  0.39184420     0.75900
H542        H  0.99912950  0.80734157  0.40353985     0.09900
C543        C  0.88364782  0.72527257  0.44721556     0.03600
C544        C  0.85175183  0.67283938  0.44660505    -0.05100
C545        C  0.86829839  0.64014261  0.46135322    -0.23500
C546        C  0.91884916  0.66057095  0.47542052     0.12800
C547        C  0.95088604  0.71352669  0.47638816    -0.12700
N548        N  0.86446460  0.75681561  0.43242050     0.64500
H549        H  0.81296860  0.65746860  0.43587483     0.12400
N550        N  0.93758781  0.62840913  0.49000472     0.61200
H551        H  0.98940719  0.72939302  0.48791091     0.08500
O552        O  0.07147794  0.88397790  0.36863525    -0.40300
O553        O  0.06442289  0.94984021  0.37989889    -0.39500
O554        O  0.93790116  0.76807657  0.55688556    -0.39500
O555        O  0.90526650  0.81689414  0.55385439    -0.37200
O556        O  0.93176884  0.59227599  0.46681453    -0.38100
O557        O  0.96519368  0.63964507  0.52335557    -0.34300
O558        O  0.84774203  0.75224603  0.39424879    -0.35700
O559        O  0.85462498  0.78101841  0.45949374    -0.39900
C560        C  0.20413718  0.30814308  0.54685199    -0.13600
C561        C  0.21137316  0.28763114  0.50899098     0.16700
C562        C  0.25061205  0.31977954  0.48054550     0.03000
C563        C  0.28244973  0.37072535  0.49115418    -0.12200
C564        C  0.27737336  0.39053994  0.53021995    -0.03200
C565        C  0.23672694  0.35925537  0.55767005     0.02300
C566        C  0.17867218  0.23268142  0.49938533     0.09100
N567        N  0.26141515  0.30041493  0.44265276     0.65500
H568        H  0.31450035  0.39398736  0.47054381     0.18400
N569        N  0.23027019  0.37788964  0.59787297     0.75900
H570        H  0.17361451  0.28405380  0.56851150     0.09900
C571        C  0.17758366  0.19520363  0.52692597     0.03600
C572        C  0.15148810  0.14444545  0.51434859    -0.05100
C573        C  0.12606784  0.12941703  0.47429931    -0.23500
C574        C  0.12538689  0.16704623  0.44709387     0.12800
C575        C  0.15153507  0.21792175  0.46034494    -0.12700
N576        N  0.20445062  0.20834944  0.56712869     0.64500
H577        H  0.15132742  0.11628063  0.53607392     0.12400
N578        N  0.09937695  0.15527442  0.40609372     0.61200
H579        H  0.15223582  0.24686083  0.43932539     0.08500
O580        O  0.22522593  0.35359676  0.63255235    -0.40300
O581        O  0.22618480  0.41685185  0.59842416    -0.39500
O582        O  0.27216792  0.32518431  0.40758574    -0.39500
O583        O  0.26614250  0.26184286  0.44537043    -0.37200
O584        O  0.09291481  0.11787424  0.38469940    -0.38100
O585        O  0.08750874  0.18540105  0.38876679    -0.34300
O586        O  0.18051943  0.19800255  0.60222846    -0.35700
O587        O  0.25147939  0.22548320  0.56774879    -0.39900
C588        C  0.54575413  0.51007459  0.58519579    -0.13600
C589        C  0.55355206  0.48388130  0.55220434     0.16700
C590        C  0.51168621  0.44804954  0.52771801     0.03000
C591        C  0.46387422  0.44197213  0.53494074    -0.12200
C592        C  0.45716069  0.47198445  0.56494449    -0.03200
C593        C  0.49825751  0.50482792  0.59176171     0.02300
C594        C  0.60593020  0.49621994  0.54279791     0.09100
N595        N  0.51737509  0.42012687  0.49348653     0.65500
H596        H  0.43267569  0.41661465  0.51433144     0.18400
N597        N  0.49267826  0.53345649  0.62540376     0.75900
H598        H  0.57729951  0.53585646  0.60532097     0.09900
C599        C  0.64439856  0.54646675  0.53387289     0.03600
C600        C  0.69260747  0.55625041  0.52262378    -0.05100
C601        C  0.70296075  0.51683828  0.51823325    -0.23500
C602        C  0.66542265  0.46704898  0.52987518     0.12800
C603        C  0.61749497  0.45740656  0.54223179    -0.12700
N604        N  0.63435231  0.58746172  0.53293764     0.64500
H605        H  0.72077265  0.59450553  0.51351695     0.12400
N606        N  0.67519385  0.42594361  0.52900180     0.61200
H607        H  0.58869883  0.41915887  0.55070567     0.08500
O608        O  0.52653890  0.57884335  0.63153195    -0.40300
O609        O  0.45666232  0.51204657  0.65183035    -0.39500
O610        O  0.48438198  0.37431040  0.48790332    -0.39500
O611        O  0.55141244  0.44259877  0.46547971    -0.37200
O612        O  0.71444668  0.43033187  0.54683288    -0.38100
O613        O  0.64258719  0.38376431  0.51377935    -0.34300
O614        O  0.66582998  0.62950982  0.54909259    -0.35700
O615        O  0.59737455  0.58378963  0.51147236    -0.39900
C616        C  0.25850650  0.13623122  0.41610796    -0.13600
C617        C  0.29032062  0.13154291  0.44646650     0.16700
C618        C  0.26827845  0.10208942  0.48434241     0.03000
C619        C  0.21554997  0.07820091  0.49019712    -0.12200
C620        C  0.18351791  0.07875536  0.45748908    -0.03200
C621        C  0.20575567  0.10765044  0.41955657     0.02300
C622        C  0.34543298  0.15493467  0.43594345     0.09100
N623        N  0.29798059  0.09340186  0.51584298     0.65500
H624        H  0.19906815  0.05639657  0.51942644     0.18400
N625        N  0.17582165  0.10500587  0.38258173     0.75900
H626        H  0.27486153  0.15923847  0.38739835     0.09900
C627        C  0.36114986  0.14828698  0.39479109     0.03600
C628        C  0.41268446  0.16934694  0.38607615    -0.05100
C629        C  0.44951854  0.19492825  0.41789247    -0.23500
C630        C  0.43451305  0.20316350  0.45845262     0.12800
C631        C  0.38284276  0.18408320  0.46678985    -0.12700
N632        N  0.32539940  0.11659338  0.36265809     0.64500
H633        H  0.42376110  0.16102805  0.35550516     0.12400
N634        N  0.47092708  0.22774809  0.49227576     0.61200
H635        H  0.37175529  0.19065670  0.49804918     0.08500
O636        O  0.13991626  0.06275807  0.37049909    -0.40300
O637        O  0.19076372  0.14274789  0.35752857    -0.39500
O638        O  0.28750283  0.09051719  0.55551395    -0.39500
O639        O  0.32973714  0.08142144  0.50386874    -0.37200
O640        O  0.51054358  0.26952631  0.48511690    -0.38100
O641        O  0.46313989  0.20823634  0.52965680    -0.34300
O642        O  0.29230008  0.07168934  0.37202030    -0.35700
O643        O  0.33049805  0.13144572  0.32378151    -0.39900
C644        C  0.76942615  0.84535380  0.51076526    -0.13600
C645        C  0.80424224  0.89750641  0.50651395     0.16700
C646        C  0.78581009  0.93158249  0.50614146     0.03000
C647        C  0.73359418  0.91272366  0.50865553    -0.12200
C648        C  0.69852728  0.86055777  0.51057143    -0.03200
C649        C  0.71688836  0.82658294  0.51263636     0.02300
C650        C  0.85919791  0.91568857  0.50019243     0.09100
N651        N  0.81909143  0.98519079  0.50120189     0.65500
H652        H  0.72001366  0.93923193  0.50715933     0.18400
N653        N  0.68288960  0.77307965  0.51386857     0.75900
H654        H  0.78311257  0.81893113  0.51103937     0.09900
C655        C  0.89708090  0.95115844  0.52801322     0.03600
C656        C  0.94813369  0.97320983  0.51627133    -0.05100
C657        C  0.96313484  0.96182988  0.47713326    -0.23500
C658        C  0.92506226  0.92383820  0.45047862     0.12800
C659        C  0.87393710  0.90134656  0.46269703    -0.12700
N660        N  0.88447657  0.96587901  0.56780542     0.64500
H661        H  0.97683757  0.00013329  0.53795250     0.12400
N662        N  0.93657264  0.90803000  0.41072387     0.61200
H663        H  0.84490557  0.87420162  0.44135873     0.08500
O664        O  0.68950827  0.74598626  0.54124882    -0.40300
O665        O  0.64979477  0.75220354  0.48467466    -0.39500
O666        O  0.85295826  0.00235313  0.47264974    -0.39500
O667        O  0.81088929  0.01557686  0.52182240    -0.37200
O668        O  0.90796338  0.86390796  0.39688575    -0.38100
O669        O  0.97220219  0.93899422  0.38707593    -0.34300
O670        O  0.84762544  0.93409426  0.59017750    -0.35700
O671        O  0.91213850  0.00998267  0.58217087    -0.39900
C672        C  0.51183853  0.91860163  0.42152722    -0.13600
C673        C  0.55149243  0.96794710  0.41391431     0.16700
C674        C  0.60198096  0.97867242  0.41784163     0.03000
C675        C  0.61135203  0.94061076  0.43226560    -0.12200
C676        C  0.57164487  0.89261439  0.44438085    -0.03200
C677        C  0.52127375  0.88060491  0.43606043     0.02300
C678        C  0.53944388  0.00863212  0.40692493     0.09100
N679        N  0.64415906  0.02877316  0.41123828     0.65500
H680        H  0.65015383  0.95039525  0.43799368     0.18400
N681        N  0.47938308  0.83050522  0.44300466     0.75900
H682        H  0.47317360  0.90998860  0.41721286     0.09900
C683        C  0.55829225  0.04221374  0.37122606     0.03600
C684        C  0.55647038  0.08693314  0.37192277    -0.05100
C685        C  0.53439297  0.09770420  0.40658796    -0.23500
C686        C  0.51182449  0.06216604  0.44032503     0.12800
C687        C  0.51447652  0.01793471  0.44019239    -0.12700
N688        N  0.57954474  0.03155043  0.33455084     0.64500
H689        H  0.57215626  0.11345525  0.34511092     0.12400
N690        N  0.49015959  0.07247749  0.47669554     0.61200
H691        H  0.50007432  0.99241094  0.46776794     0.08500
O692        O  0.48037790  0.79286248  0.42813674    -0.40300
O693        O  0.43949753  0.82407599  0.46038502    -0.39500
O694        O  0.64556075  0.06603300  0.42952022    -0.39500
O695        O  0.68322124  0.03484610  0.39251652    -0.37200
O696        O  0.44446189  0.04290855  0.48616175    -0.38100
O697        O  0.51795574  0.10790532  0.50202386    -0.34300
O698        O  0.55871242  0.98731747  0.31983211    -0.35700
O699        O  0.61554911  0.06700218  0.31389783    -0.39900
C700        C  0.72811250  0.87732149  0.11587387    -0.13600
C701        C  0.69668410  0.82502010  0.10984608     0.16700
C702        C  0.71796216  0.79670737  0.09430251     0.03000
C703        C  0.77012401  0.82076082  0.08732304    -0.12200
C704        C  0.80200987  0.87220700  0.09628745    -0.03200
C705        C  0.78062464  0.90131584  0.10923065     0.02300
C706        C  0.64141155  0.80095505  0.11775803     0.09100
N707        N  0.68787767  0.74302547  0.08824705     0.65500
H708        H  0.78658784  0.79807935  0.07845134     0.18400
N709        N  0.81176657  0.95446169  0.11741799     0.75900
H710        H  0.71161706  0.89943929  0.12622325     0.09900
C711        C  0.62136474  0.80327523  0.15811704     0.03600
C712        C  0.56870601  0.78145527  0.16253309    -0.05100
C713        C  0.53551397  0.75593255  0.12813067    -0.23500
C714        C  0.55588918  0.75289575  0.08803085     0.12800
C715        C  0.60833304  0.77582442  0.08348495    -0.12700
N716        N  0.65348368  0.82547091  0.19522468     0.64500
H717        H  0.55325237  0.78275129  0.19349275     0.12400
N718        N  0.52459256  0.72871128  0.05094310     0.61200
H719        H  0.62378852  0.77490417  0.05239971     0.08500
O720        O  0.79972418  0.97506373  0.14632921    -0.40300
O721        O  0.84843922  0.98189888  0.09293853    -0.39500
O722        O  0.69578622  0.72279412  0.05630869    -0.39500
O723        O  0.65723397  0.71515498  0.11704508    -0.37200
O724        O  0.48573327  0.73174737  0.04357886    -0.38100
O725        O  0.53924812  0.71003142  0.02235008    -0.34300
O726        O  0.64158132  0.84655952  0.22378559    -0.35700
O727        O  0.69037319  0.81880625  0.20223263    -0.39900
C728        C  0.15983938  0.62982750  0.22841978    -0.13600
C729        C  0.16716702  0.59359226  0.20809792     0.16700
C730        C  0.12657056  0.54321628  0.20658580     0.03000
C731        C  0.07850730  0.53088254  0.22228990    -0.12200
C732        C  0.07026258  0.56805361  0.24025754    -0.03200
C733        C  0.11268909  0.61761834  0.24536163     0.02300
C734        C  0.21783175  0.61001756  0.18911719     0.09100
N735        N  0.13330801  0.50445788  0.18835295     0.65500
H736        H  0.04708808  0.49276441  0.21834424     0.18400
N737        N  0.10872680  0.65613447  0.26789433     0.75900
H738        H  0.19135192  0.66811055  0.23134705     0.09900
C739        C  0.23071998  0.63240806  0.14749345     0.03600
C740        C  0.28062026  0.65378014  0.13269880    -0.05100
C741        C  0.31922993  0.65580497  0.15900328    -0.23500
C742        C  0.30669096  0.63496206  0.20146586     0.12800
C743        C  0.25608353  0.61133622  0.21539396    -0.12700
N744        N  0.19411057  0.63601180  0.12083285     0.64500
H745        H  0.28941731  0.66958582  0.09972077     0.12400
N746        N  0.34511114  0.63987209  0.23149914     0.61200
H747        H  0.24683187  0.59634894  0.24841860     0.08500
O748        O  0.12958625  0.70067955  0.25293654    -0.40300
O749        O  0.08864540  0.64691297  0.30480512    -0.39500
O750        O  0.13063215  0.46948593  0.21226416    -0.39500
O751        O  0.13601201  0.50180751  0.14788659    -0.37200
O752        O  0.38695898  0.68061518  0.23356726    -0.38100
O753        O  0.33502191  0.60597003  0.25976688    -0.34300
O754        O  0.20402047  0.67818158  0.10485606    -0.35700
O755        O  0.15244843  0.59709989  0.11212211    -0.39900
C756        C  0.97239647  0.81244749  0.21112040    -0.13600
C757        C  0.93410438  0.76149137  0.20827918     0.16700
C758        C  0.88623920  0.74939947  0.19163786     0.03000
C759        C  0.87863070  0.78819009  0.17649122    -0.12200
C760        C  0.91837929  0.83863080  0.17518990    -0.03200
C761        C  0.96526286  0.85119261  0.19432018     0.02300
C762        C  0.94510867  0.72126358  0.22117276     0.09100
N763        N  0.84633156  0.69795232  0.18631363     0.65500
H764        H  0.84259561  0.77787536  0.16152367     0.18400
N765        N  0.00586549  0.90267924  0.19640440     0.75900
H766        H  0.00852952  0.82193188  0.22541504     0.09900
C767        C  0.98606112  0.71903304  0.20323645     0.03600
C768        C  0.99305121  0.67848942  0.21393817    -0.05100
C769        C  0.95910383  0.63898222  0.24103628    -0.23500
C770        C  0.91951351  0.64246134  0.26059267     0.12800
C771        C  0.91316485  0.68363447  0.25060239    -0.12700
N772        N  0.01923957  0.75595100  0.17233894     0.64500
H773        H  0.02364170  0.67646080  0.19876587     0.12400
N774        N  0.88607771  0.60526533  0.29113002     0.61200
H775        H  0.88268820  0.68605661  0.26557144     0.08500
O776        O  0.05090588  0.91320366  0.19106888    -0.40300
O777        O  0.99724394  0.93730801  0.20679011    -0.39500
O778        O  0.80126014  0.68581850  0.19409564    -0.39500
O779        O  0.85489553  0.66648798  0.16800452    -0.37200
O780        O  0.90368994  0.59595268  0.32485645    -0.38100
O781        O  0.83894028  0.58645595  0.28723510    -0.34300
O782        O  0.06634353  0.77423934  0.17566365    -0.35700
O783        O  0.00145926  0.76610884  0.13917627    -0.39900
C784        C  0.55673901  0.00691256  0.18575676    -0.13600
C785        C  0.57639950  0.97405260  0.18582140     0.16700
C786        C  0.62802363  0.99428164  0.19587569     0.03000
C787        C  0.65925087  0.04641070  0.20305729    -0.12200
C788        C  0.64054803  0.07991395  0.20046363    -0.03200
C789        C  0.58827602  0.05939244  0.19309209     0.02300
C790        C  0.54393385  0.91956276  0.17311668     0.09100
N791        N  0.64977784  0.96254880  0.19768121     0.65500
H792        H  0.69931555  0.06134190  0.20828228     0.18400
N793        N  0.56745197  0.09180578  0.18980138     0.75900
H794        H  0.51710762  0.99206589  0.17843217     0.09900
C795        C  0.51000555  0.88216466  0.20204796     0.03600
C796        C  0.48179210  0.83124626  0.18917692    -0.05100
C797        C  0.48554645  0.81588046  0.14730888    -0.23500
C798        C  0.51941318  0.85377290  0.11813864     0.12800
C799        C  0.54795686  0.90463949  0.13133934    -0.12700
N800        N  0.50551835  0.89486207  0.24535678     0.64500
H801        H  0.45760728  0.80303585  0.21267133     0.12400
N802        N  0.52484962  0.84218006  0.07469445     0.61200
H803        H  0.57353878  0.93297112  0.10854937     0.08500
O804        O  0.55731178  0.10742920  0.22361705    -0.40300
O805        O  0.55605889  0.10212225  0.15323537    -0.39500
O806        O  0.65671303  0.94535947  0.16323310    -0.39500
O807        O  0.66951498  0.95865878  0.23248820    -0.37200
O808        O  0.56827500  0.85412698  0.06143164    -0.38100
O809        O  0.49164032  0.83635582  0.04726630    -0.34300
O810        O  0.46331205  0.88654123  0.25888800    -0.35700
O811        O  0.54078269  0.90508661  0.27200947    -0.39900
C812        C  0.28541293  0.40679596  0.08399263    -0.13600
C813        C  0.27598044  0.43256026  0.11665606     0.16700
C814        C  0.23208821  0.40557123  0.14197621     0.03000
C815        C  0.19812241  0.35443034  0.13316626    -0.12200
C816        C  0.20557758  0.32923359  0.09875867    -0.03200
C817        C  0.25083968  0.35547834  0.07506870     0.02300
C818        C  0.31017262  0.48818653  0.12230846     0.09100
N819        N  0.21985247  0.43005657  0.17510103     0.65500
H820        H  0.16374089  0.33490683  0.15191932     0.18400
N821        N  0.26081013  0.33167961  0.04026276     0.75900
H822        H  0.31908018  0.42710172  0.06446576     0.09900
C823        C  0.34076856  0.50909171  0.15956575     0.03600
C824        C  0.36752380  0.56203440  0.16510544    -0.05100
C825        C  0.36518119  0.59490332  0.13411100    -0.23500
C826        C  0.33297852  0.57341313  0.09758432     0.12800
C827        C  0.30645811  0.52071517  0.09218882    -0.12700
N828        N  0.34487051  0.47726739  0.19203309     0.64500
H829        H  0.39098000  0.57781380  0.19358871     0.12400
N830        N  0.32657859  0.60411367  0.06544267     0.61200
H831        H  0.28192500  0.50470086  0.06428784     0.08500
O832        O  0.29020394  0.31453661  0.04608699    -0.40300
O833        O  0.24515458  0.33310266  0.00263485    -0.39500
O834        O  0.22379632  0.47257055  0.16794019    -0.39500
O835        O  0.19952751  0.40667899  0.20975044    -0.37200
O836        O  0.36427219  0.64351233  0.05083284    -0.38100
O837        O  0.28404238  0.58856346  0.04764392    -0.34300
O838        O  0.34527091  0.43782427  0.18148462    -0.35700
O839        O  0.35150277  0.49026051  0.23121435    -0.39900
C840        C  0.93363981  0.17870174  0.09594328    -0.13600
C841        C  0.92735417  0.21801624  0.07905687     0.16700
C842        C  0.96924208  0.26102259  0.06054523     0.03000
C843        C  0.01686838  0.26505924  0.06214715    -0.12200
C844        C  0.02303940  0.22615426  0.07992580    -0.03200
C845        C  0.98080316  0.18210046  0.09618393     0.02300
C846        C  0.87939815  0.21688904  0.08827438     0.09100
N847        N  0.96384021  0.30029368  0.03966279     0.65500
H848        H  0.04905273  0.29799335  0.04806842     0.18400
N849        N  0.98565461  0.14175939  0.11518289     0.75900
H850        H  0.90224355  0.14623339  0.11133752     0.09900
C851        C  0.83184379  0.17295488  0.08194893     0.03600
C852        C  0.78922833  0.16895489  0.10207447    -0.05100
C853        C  0.79269367  0.20809955  0.12784893    -0.23500
C854        C  0.83936412  0.25416221  0.12968584     0.12800
C855        C  0.88209629  0.25757782  0.11080132    -0.12700
N856        N  0.82665999  0.13148918  0.05677710     0.64500
H857        H  0.75347241  0.13405127  0.09883930     0.12400
N858        N  0.84510864  0.29688004  0.15278931     0.61200
H859        H  0.91829603  0.29150236  0.11597025     0.08500
O860        O  0.95499884  0.09654588  0.10501858    -0.40300
O861        O  0.01746646  0.15077858  0.14504186    -0.39500
O862        O  0.99960481  0.34557845  0.04057985    -0.39500
O863        O  0.92507401  0.28934177  0.01715341    -0.37200
O864        O  0.87258757  0.31175479  0.18624911    -0.38100
O865        O  0.82854926  0.32374195  0.13649839    -0.34300
O866        O  0.79524171  0.08650452  0.06757327    -0.35700
O867        O  0.85151807  0.13971316  0.02239641    -0.39900
C868        C  0.59803412  0.57471681  0.16084014    -0.13600
C869        C  0.55676863  0.56756636  0.18562327     0.16700
C870        C  0.54057280  0.53225361  0.22026260     0.03000
C871        C  0.56458506  0.50401890  0.22846609    -0.12200
C872        C  0.60426553  0.50955149  0.20238277    -0.03200
C873        C  0.62153825  0.54603697  0.16882498     0.02300
C874        C  0.53017312  0.59594546  0.17373376     0.09100
N875        N  0.49711443  0.52149420  0.24500390     0.65500
H876        H  0.54941842  0.47465423  0.25314235     0.18400
N877        N  0.66098548  0.55212043  0.14085861     0.75900
H878        H  0.61111652  0.60169894  0.13424707     0.09900
C879        C  0.52805958  0.63087828  0.20177665     0.03600
C880        C  0.50203703  0.65583291  0.18853149    -0.05100
C881        C  0.47790938  0.64747240  0.14790945    -0.23500
C882        C  0.47869697  0.61107973  0.12027290     0.12800
C883        C  0.50529052  0.58655902  0.13356338    -0.12700
N884        N  0.55240408  0.64199453  0.24349266     0.64500
H885        H  0.50072571  0.68255453  0.21028332     0.12400
N886        N  0.45219135  0.59720941  0.07946772     0.61200
H887        H  0.50632092  0.55924742  0.11237278     0.08500
O888        O  0.70617427  0.58488355  0.14930080    -0.40300
O889        O  0.65016759  0.52976206  0.10500984    -0.39500
O890        O  0.45432861  0.50157762  0.22690083    -0.39500
O891        O  0.50012187  0.52438023  0.28570492    -0.37200
O892        O  0.44412935  0.62785648  0.05829345    -0.38100
O893        O  0.43821080  0.55441582  0.06345522    -0.34300
O894        O  0.59490090  0.64534461  0.24848938    -0.35700
O895        O  0.53331850  0.65245693  0.27479046    -0.39900
C896        C  0.33803807  0.79860727  0.08033521    -0.13600
C897        C  0.32933691  0.82268563  0.11437393     0.16700
C898        C  0.34068951  0.81450681  0.15712708     0.03000
C899        C  0.36279780  0.78437763  0.16448784    -0.12200
C900        C  0.37514163  0.76343538  0.12989586    -0.03200
C901        C  0.36057573  0.76915660  0.08741015     0.02300
C902        C  0.31024370  0.85762372  0.10384231     0.09100
N903        N  0.33151806  0.83769175  0.19312446     0.65500
H904        H  0.37153679  0.77834085  0.19727716     0.18400
N905        N  0.36652221  0.74402630  0.05114235     0.75900
H906        H  0.32816080  0.80376316  0.04763338     0.09900
C907        C  0.33945422  0.90163876  0.07866287     0.03600
C908        C  0.32120224  0.93453158  0.06992951    -0.05100
C909        C  0.27476643  0.92532872  0.08631509    -0.23500
C910        C  0.24433930  0.88009803  0.10955321     0.12800
C911        C  0.26216903  0.84642504  0.11777433    -0.12700
N912        N  0.38871998  0.91478146  0.06346886     0.64500
H913        H  0.34493169  0.96927765  0.05217044     0.12400
N914        N  0.19686038  0.86917147  0.12707845     0.61200
H915        H  0.23918935  0.81221114  0.13639693     0.08500
O916        O  0.33254911  0.72512980  0.02239964    -0.40300
O917        O  0.40784080  0.74582760  0.04489650    -0.39500
O918        O  0.31095569  0.81209441  0.22683509    -0.39500
O919        O  0.34755068  0.88458604  0.19274787    -0.37200
O920        O  0.15798707  0.82673687  0.12043214    -0.38100
O921        O  0.19478599  0.89931629  0.15322286    -0.34300
O922        O  0.40191658  0.93178221  0.02551433    -0.35700
O923        O  0.42094287  0.91465142  0.08920274    -0.39900
C924        C  0.38191517  0.19524887  0.11589863    -0.13600
C925        C  0.42961324  0.20177029  0.10691550     0.16700
C926        C  0.43360157  0.15991022  0.09402403     0.03000
C927        C  0.39014946  0.11220467  0.09246418    -0.12200
C928        C  0.34242979  0.10540992  0.10192670    -0.03200
C929        C  0.33824476  0.14762905  0.11338886     0.02300
C930        C  0.47502127  0.25017389  0.11843876     0.09100
N931        N  0.48130770  0.16534936  0.08210968     0.65500
H932        H  0.39356272  0.08045260  0.08202994     0.18400
N933        N  0.29056593  0.14264839  0.12428592     0.75900
H934        H  0.37886199  0.22696595  0.12706053     0.09900
C935        C  0.48215837  0.29742427  0.10446474     0.03600
C936        C  0.52161882  0.34179534  0.12254599    -0.05100
C937        C  0.55441951  0.33997570  0.15378395    -0.23500
C938        C  0.54786317  0.29235978  0.16633511     0.12800
C939        C  0.50850731  0.24845001  0.14862027    -0.12700
N940        N  0.44972031  0.30088919  0.07233895     0.64500
H941        H  0.52660976  0.37795864  0.11217640     0.12400
N942        N  0.57793258  0.28711469  0.19952235     0.61200
H943        H  0.50236094  0.21231419  0.16050518     0.08500
O944        O  0.27903127  0.17431575  0.10992465    -0.40300
O945        O  0.26247482  0.11015092  0.15195796    -0.39500
O946        O  0.49053779  0.13028510  0.09017807    -0.39500
O947        O  0.51273769  0.20337627  0.06048725    -0.37200
O948        O  0.57042918  0.29261321  0.23860387    -0.38100
O949        O  0.60440804  0.26757581  0.19069143    -0.34300
O950        O  0.43807542  0.33485089  0.07475233    -0.35700
O951        O  0.43522603  0.27216217  0.03996819    -0.39900
loop_ 
_geom_bond_atom_site_label_1 
_geom_bond_atom_site_label_2 
_geom_bond_distance 
_geom_bond_site_symmetry_2 
_ccdc_geom_bond_type 
C1            N2   1.354   1_565  A
C1            N6   1.368       .  A
C1          C909   1.481       .  S
N2            C3   1.351       .  A
C3            N4   1.350       .  A
C3          C928   1.474       .  S
N4            C5   1.353       .  A
C5            N6   1.370   1_545  A
C5          C171   1.464       .  S
C7            N8   1.374       .  A
C7           N12   1.357       .  A
C7          C872   1.486       .  S
N8            C9   1.373       .  A
C9           N10   1.350       .  A
C9           C63   1.477       .  S
N10          C11   1.349       .  A
C11          N12   1.354       .  A
C11         C937   1.481       .  S
C13          N14   1.359       .  A
C13          N18   1.376       .  A
C13         C816   1.498       .  S
N14          C15   1.351       .  A
C15          N16   1.348       .  A
C15         C844   1.469       .  S
N16          C17   1.352       .  A
C17          N18   1.375       .  A
C17         C170   1.473       .  S
C19          N20   1.357       .  A
C19          N24   1.373       .  A
C19         C788   1.499       .  S
N20          C21   1.356       .  A
C21          N22   1.354       .  A
C21         C853   1.489       .  S
N22          C23   1.354       .  A
C23          N24   1.377       .  A
C23          C64   1.486       .  S
C25          N26   1.377   1_455  A
C25          N30   1.356       .  A
C25         C732   1.505       .  S
N26          C27   1.377       .  A
C27          N28   1.355       .  A
C27          C58   1.480       .  S
N28          C29   1.351       .  A
C29          N30   1.350   1_655  A
C29         C769   1.480       .  S
C31          N32   1.352       .  A
C31          N36   1.363       .  A
C31         C704   1.476       .  S
N32          C33   1.352       .  A
C33          N34   1.357       .  A
C33         C760   1.477       .  S
N34          C35   1.358       .  A
C35          N36   1.367       .  A
C35         C165   1.469       .  S
C37         C900   1.498       .  S
C37          C38   1.425       .  A
C37          C42   1.427       .  A
C38         C741   1.508       .  S
C38          C39   1.426       .  A
C39         C825   1.509       .  S
C39          C40   1.429       .  A
C40         C881   1.515       .  S
C40          C41   1.433       .  A
C41         C713   1.499       .  S
C41          C42   1.430       .  A
C42         C797   1.521       .  S
O43          C59   1.274       .  A
O43         Zn49   2.038       .  S
C44         C100   1.472       .  S
C44          O60   1.274       .  A
C44          O57   1.275       .  A
O45          C58   1.283       .  A
O45         Cd52   2.130       .  S
O46          C64   1.272       .  A
O46         Cd55   2.076       .  S
O47          C61   1.276       .  A
O47         Cd51   2.114       .  S
O48          C59   1.274       .  A
O48         Cd51   2.061       .  S
Zn49         O60   2.005       .  S
Zn49         O62   2.027       .  S
Zn49         O54   1.954       .  S
O50          C61   1.274       .  A
O50         Cd55   2.042       .  S
Cd51         O53   2.089       .  S
Cd51         O54   2.028       .  S
Cd52         O56   2.111       .  S
Cd52         O65   2.133       .  S
Cd52         O54   2.003       .  S
O53          C63   1.275       .  A
O54         Cd55   2.011       .  S
Cd55         O57   2.099       .  S
O56          C63   1.283       .  A
C58          O62   1.273       .  A
C59          C86   1.467       .  S
C61          C76   1.477       .  S
C64          O65   1.286       .  A
C66          N67   1.373       .  A
C66          N71   1.359       .  A
C66         C648   1.493       .  S
N67          C68   1.371       .  A
C68          N69   1.354       .  A
C68         C191   1.480       .  S
N69          C70   1.352       .  A
C70          N71   1.355       .  A
C70         C676   1.486       .  S
C72          N73   1.359       .  A
C72          N77   1.373       .  A
C72         C629   1.478       .  S
N73          C74   1.350       .  A
C74          N75   1.346       .  A
C74         C685   1.469       .  S
N75          C76   1.354       .  A
C76          N77   1.369       .  A
C78          N79   1.360       .  A
C78          N83   1.375       .  A
C78         C564   1.483       .  S
N79          C80   1.351       .  A
C80          N81   1.346       .  A
C80         C592   1.481       .  S
N81          C82   1.355       .  A
C82          N83   1.370       .  A
C82         C174   1.482       .  S
C84          N85   1.363       .  A
C84          N89   1.360       .  A
C84         C545   1.478       .  S
N85          C86   1.363       .  A
C86          N87   1.355       .  A
N87          C88   1.354       .  A
C88          N89   1.357       .  A
C88         C601   1.483       .  S
C90          N91   1.362       .  A
C90          N95   1.377       .  A
C90         C480   1.495       .  S
N91          C92   1.355       .  A
C92          N93   1.349       .  A
C92         C508   1.480       .  S
N93          C94   1.354       .  A
C94          N95   1.374       .  A
C94         C189   1.489       .  S
C96          N97   1.362       .  A
C96         N101   1.368       .  A
C96         C452   1.479       .  S
N97          C98   1.357       .  A
C98          N99   1.351       .  A
C98         C517   1.483       .  S
N99         C100   1.352       .  A
C100        N101   1.364       .  A
C102        C536   1.503       .  S
C102        C103   1.432       .  A
C102        C107   1.429       .  A
C103        C657   1.516   1_455  S
C103        C104   1.431   1_565  A
C104        C461   1.509       .  S
C104        C105   1.431       .  A
C105        C573   1.510       .  S
C105        C106   1.428       .  A
C106        C620   1.509       .  S
C106        C107   1.425   1_545  A
C107        C489   1.509       .  S
C108        N109   1.369       .  A
C108        N113   1.356       .  A
C108        C396   1.483       .  S
N109        C110   1.370       .  A
C110        N111   1.355       .  A
C110        C194   1.476       .  S
N111        C112   1.354       .  A
C112        N113   1.354       .  A
C112        C433   1.480       .  S
C114        N115   1.359       .  A
C114        N119   1.374       .  A
C114        C368   1.490       .  S
N115        C116   1.351       .  A
C116        N117   1.349       .  A
C116        C424   1.482   1_545  S
N117        C118   1.356       .  A
C118        N119   1.372       .  A
C118        C166   1.482       .  S
C120        N121   1.366       .  A
C120        N125   1.357       .  A
C120        C321   1.474       .  S
N121        C122   1.365       .  A
C122        N123   1.354       .  A
C122        C193   1.465       .  S
N123        C124   1.352       .  A
C124        N125   1.353       .  A
C124        C349   1.479       .  S
C126        N127   1.359   1_655  A
C126        N131   1.381       .  A
C126        C284   1.496       .  S
N127        C128   1.348       .  A
C128        N129   1.344       .  A
C128        C340   1.477       .  S
N129        C130   1.353       .  A
C130        N131   1.377   1_455  A
C130        C151   1.489       .  S
C132        N133   1.377       .  A
C132        N137   1.359       .  A
C132        C228   1.489       .  S
N133        C134   1.375       .  A
C134        N135   1.352       .  A
C134        C168   1.485       .  S
N135        C136   1.346       .  A
C136        N137   1.349       .  A
C136        C256   1.468       .  S
C138        N139   1.370       .  A
C138        N143   1.360       .  A
C138        C200   1.489       .  S
N139        C140   1.367       .  A
C140        N141   1.352       .  A
C140        C188   1.471       .  S
N141        C142   1.352       .  A
C142        N143   1.355       .  A
C142        C265   1.488       .  S
C144        C312   1.497       .  S
C144        C145   1.424       .  A
C144        C149   1.426       .  A
C145        C237   1.508       .  S
C145        C146   1.426       .  A
C146        C405   1.506       .  S
C146        C147   1.432       .  A
C147        C293   1.508       .  S
C147        C148   1.429       .  A
C148        C209   1.504       .  S
C148        C149   1.423       .  A
C149        C377   1.508       .  S
O150        C166   1.277       .  A
O150       Zn156   2.009   1_645  S
C151        O167   1.279       .  A
C151        O164   1.278       .  A
O152        C165   1.278   1_455  A
O152       Cd159   2.092   1_565  S
O153        C171   1.272   1_565  A
O153       Cd162   2.069   1_564  S
O154        C168   1.280       .  A
O154       Cd158   2.069       .  S
O155        C166   1.277   1_455  A
O155       Cd158   2.113       .  S
Zn156       O167   2.097       .  S
Zn156       O169   2.020   1_456  S
Zn156       O161   1.968   1_565  S
O157        C168   1.277       .  A
O157       Cd162   2.116       .  S
Cd158       O160   2.075       .  S
Cd158       O161   2.009       .  S
Cd159       O163   2.112       .  S
Cd159       O172   2.088       .  S
Cd159       O161   2.015   1_554  S
O160        C170   1.273   1_556  A
O161       Cd162   2.004       .  S
Cd162       O164   2.056   1_545  S
O163        C170   1.279       .  A
C165        O169   1.273       .  A
C171        O172   1.278       .  A
O173        C189   1.280       .  A
O173       Zn179   2.029       .  S
C174        O190   1.281       .  A
C174        O187   1.276       .  A
O175        C188   1.274       .  A
O175       Cd182   2.063       .  S
O176        C194   1.272       .  A
O176       Cd185   2.088       .  S
O177        C191   1.280       .  A
O177       Cd181   2.083       .  S
O178        C189   1.279       .  A
O178       Cd181   2.123       .  S
Zn179       O190   2.091       .  S
Zn179       O192   2.055       .  S
Zn179       O184   1.976       .  S
O180        C191   1.277       .  A
O180       Cd185   2.107       .  S
Cd181       O183   2.092       .  S
Cd181       O184   2.022       .  S
Cd182       O186   2.063       .  S
Cd182       O195   2.087       .  S
Cd182       O184   1.992       .  S
O183        C193   1.276       .  A
O184       Cd185   2.008       .  S
Cd185       O187   2.041       .  S
O186        C193   1.274       .  A
C188        O192   1.275       .  A
C194        O195   1.277       .  A
C196        C197   1.407       .  A
C196        C201   1.412       .  A
C196        H206   1.084       .  S
C197        C202   1.495   1_455  S
C197        C198   1.413       .  A
C198        C199   1.402       .  A
C198        N203   1.435       .  S
C199        C200   1.405       .  A
C199        H204   1.084       .  S
C200        C201   1.414       .  A
C201        N205   1.434       .  S
C202        C207   1.415       .  A
C202        C211   1.401       .  A
N203        O218   1.261   1_455  A
N203        O219   1.262       .  A
N205        O216   1.263       .  A
N205        O217   1.262       .  A
C207        C208   1.407       .  A
C207        N212   1.437       .  S
C208        C209   1.405       .  A
C208        H213   1.083       .  S
C209        C210   1.421       .  A
C210        C211   1.410       .  A
C210        N214   1.438       .  S
C211        H215   1.084       .  S
N212        O222   1.263   1_655  A
N212        O223   1.263       .  A
N214        O220   1.262       .  A
N214        O221   1.263       .  A
C224        C225   1.403       .  A
C224        C229   1.402       .  A
C224        H234   1.084       .  S
C225        C230   1.503       .  S
C225        C226   1.421       .  A
C226        C227   1.416       .  A
C226        N231   1.436       .  S
C227        C228   1.404       .  A
C227        H232   1.084       .  S
C228        C229   1.415       .  A
C229        N233   1.435       .  S
C230        C235   1.418       .  A
C230        C239   1.405       .  A
N231        O246   1.263       .  A
N231        O247   1.262       .  A
N233        O244   1.262       .  A
N233        O245   1.262       .  A
C235        C236   1.410       .  A
C235        N240   1.439       .  S
C236        C237   1.406       .  A
C236        H241   1.082       .  S
C237        C238   1.419       .  A
C238        C239   1.410       .  A
C238        N242   1.441       .  S
C239        H243   1.083       .  S
N240        O250   1.263       .  A
N240        O251   1.263       .  A
N242        O248   1.262       .  A
N242        O249   1.263       .  A
C252        C253   1.402       .  A
C252        C257   1.393       .  A
C252        H262   1.084       .  S
C253        C258   1.480       .  S
C253        C254   1.416       .  A
C254        C255   1.406       .  A
C254        N259   1.440       .  S
C255        C256   1.404       .  A
C255        H260   1.084       .  S
C256        C257   1.409       .  A
C257        N261   1.435       .  S
C258        C263   1.413       .  A
C258        C267   1.404       .  A
N259        O274   1.263       .  A
N259        O275   1.263       .  A
N261        O272   1.262       .  A
N261        O273   1.262       .  A
C263        C264   1.398       .  A
C263        N268   1.438       .  S
C264        C265   1.409       .  A
C264        H269   1.083       .  S
C265        C266   1.415       .  A
C266        C267   1.401       .  A
C266        N270   1.435       .  S
C267        H271   1.084       .  S
N268        O278   1.262       .  A
N268        O279   1.263       .  A
N270        O276   1.263       .  A
N270        O277   1.262       .  A
C280        C281   1.411       .  A
C280        C285   1.416       .  A
C280        H290   1.083       .  S
C281        C286   1.501       .  S
C281        C282   1.413       .  A
C282        C283   1.403       .  A
C282        N287   1.437       .  S
C283        C284   1.409       .  A
C283        H288   1.084       .  S
C284        C285   1.411       .  A
C285        N289   1.431       .  S
C286        C291   1.408       .  A
C286        C295   1.406       .  A
N287        O302   1.262       .  A
N287        O303   1.263       .  A
N289        O300   1.262       .  A
N289        O301   1.262       .  A
C291        C292   1.403       .  A
C291        N296   1.428       .  S
C292        C293   1.408       .  A
C292        H297   1.084       .  S
C293        C294   1.427       .  A
C294        C295   1.415       .  A
C294        N298   1.443       .  S
C295        H299   1.083       .  S
N296        O306   1.262       .  A
N296        O307   1.262       .  A
N298        O304   1.259       .  A
N298        O305   1.262       .  A
C308        C309   1.403       .  A
C308        C313   1.407       .  A
C308        H318   1.084       .  S
C309        C314   1.482       .  S
C309        C310   1.409       .  A
C310        C311   1.402       .  A
C310        N315   1.438       .  S
C311        C312   1.403       .  A
C311        H316   1.079       .  S
C312        C313   1.416       .  A
C313        N317   1.433       .  S
C314        C319   1.415       .  A
C314        C323   1.400       .  A
N315        O330   1.263       .  A
N315        O331   1.262       .  A
N317        O328   1.262       .  A
N317        O329   1.259       .  A
C319        C320   1.408       .  A
C319        N324   1.436       .  S
C320        C321   1.403   1_545  A
C320        H325   1.084   1_545  S
C321        C322   1.412   1_565  A
C322        C323   1.399       .  A
C322        N326   1.436       .  S
C323        H327   1.084       .  S
N324        O334   1.262       .  A
N324        O335   1.262       .  A
N326        O332   1.262       .  A
N326        O333   1.263   1_545  A
C336        C337   1.400       .  A
C336        C341   1.398       .  A
C336        H346   1.084       .  S
C337        C342   1.474       .  S
C337        C338   1.412       .  A
C338        C339   1.399       .  A
C338        N343   1.436       .  S
C339        C340   1.404       .  A
C339        H344   1.084       .  S
C340        C341   1.416       .  A
C341        N345   1.436       .  S
C342        C347   1.411       .  A
C342        C351   1.400       .  A
N343        O358   1.262       .  A
N343        O359   1.263       .  A
N345        O356   1.263       .  A
N345        O357   1.263       .  A
C347        C348   1.398       .  A
C347        N352   1.436       .  S
C348        C349   1.405       .  A
C348        H353   1.084       .  S
C349        C350   1.416       .  A
C350        C351   1.400       .  A
C350        N354   1.436       .  S
C351        H355   1.084       .  S
N352        O362   1.262       .  A
N352        O363   1.263       .  A
N354        O360   1.263       .  A
N354        O361   1.263       .  A
C364        C365   1.413       .  A
C364        C369   1.414       .  A
C364        H374   1.084       .  S
C365        C370   1.501       .  S
C365        C366   1.416       .  A
C366        C367   1.401       .  A
C366        N371   1.438       .  S
C367        C368   1.404       .  A
C367        H372   1.083       .  S
C368        C369   1.412       .  A
C369        N373   1.432       .  S
C370        C375   1.414       .  A
C370        C379   1.408       .  A
N371        O386   1.262       .  A
N371        O387   1.262       .  A
N373        O384   1.262       .  A
N373        O385   1.262       .  A
C375        C376   1.406       .  A
C375        N380   1.435       .  S
C376        C377   1.405       .  A
C376        H381   1.080       .  S
C377        C378   1.417       .  A
C378        C379   1.409       .  A
C378        N382   1.432       .  S
C379        H383   1.084       .  S
N380        O390   1.262       .  A
N380        O391   1.262       .  A
N382        O388   1.259       .  A
N382        O389   1.261       .  A
C392        C393   1.403       .  A
C392        C397   1.407       .  A
C392        H402   1.084       .  S
C393        C398   1.495       .  S
C393        C394   1.412       .  A
C394        C395   1.408       .  A
C394        N399   1.428       .  S
C395        C396   1.404       .  A
C395        H400   1.084       .  S
C396        C397   1.416       .  A
C397        N401   1.435       .  S
C398        C403   1.412       .  A
C398        C407   1.402       .  A
N399        O414   1.262       .  A
N399        O415   1.262       .  A
N401        O412   1.262       .  A
N401        O413   1.262       .  A
C403        C404   1.404       .  A
C403        N408   1.432       .  S
C404        C405   1.406       .  A
C404        H409   1.083       .  S
C405        C406   1.425       .  A
C406        C407   1.412       .  A
C406        N410   1.442       .  S
C407        H411   1.083       .  S
N408        O418   1.262       .  A
N408        O419   1.262       .  A
N410        O416   1.262       .  A
N410        O417   1.263       .  A
C420        C421   1.405       .  A
C420        C425   1.397       .  A
C420        H430   1.084       .  S
C421        C426   1.485       .  S
C421        C422   1.413       .  A
C422        C423   1.403       .  A
C422        N427   1.438       .  S
C423        C424   1.407       .  A
C423        H428   1.084       .  S
C424        C425   1.412       .  A
C425        N429   1.430       .  S
C426        C431   1.413       .  A
C426        C435   1.404       .  A
N427        O442   1.263       .  A
N427        O443   1.263       .  A
N429        O440   1.262   1_565  A
N429        O441   1.262   1_565  A
C431        C432   1.403       .  A
C431        N436   1.438       .  S
C432        C433   1.406       .  A
C432        H437   1.084       .  S
C433        C434   1.413       .  A
C434        C435   1.396       .  A
C434        N438   1.431       .  S
C435        H439   1.084       .  S
N436        O446   1.263       .  A
N436        O447   1.263       .  A
N438        O444   1.262       .  A
N438        O445   1.262       .  A
C448        C449   1.406       .  A
C448        C453   1.406       .  A
C448        H458   1.084       .  S
C449        C454   1.498       .  S
C449        C450   1.416       .  A
C450        C451   1.402       .  A
C450        N455   1.429       .  S
C451        C452   1.400       .  A
C451        H456   1.084       .  S
C452        C453   1.412       .  A
C453        N457   1.432       .  S
C454        C459   1.416       .  A
C454        C463   1.403       .  A
N455        O470   1.262       .  A
N455        O471   1.261   1_655  A
N457        O468   1.262       .  A
N457        O469   1.262       .  A
C459        C460   1.406   1_655  A
C459        N464   1.434   1_655  S
C460        C461   1.407       .  A
C460        H465   1.083       .  S
C461        C462   1.421   1_455  A
C462        C463   1.405       .  A
C462        N466   1.436       .  S
C463        H467   1.083       .  S
N464        O474   1.262       .  A
N464        O475   1.262       .  A
N466        O472   1.260   1_655  A
N466        O473   1.263       .  A
C476        C477   1.404       .  A
C476        C481   1.409       .  A
C476        H486   1.083       .  S
C477        C482   1.507       .  S
C477        C478   1.420       .  A
C478        C479   1.414       .  A
C478        N483   1.436       .  S
C479        C480   1.404       .  A
C479        H484   1.084       .  S
C480        C481   1.419       .  A
C481        N485   1.439       .  S
C482        C487   1.419       .  A
C482        C491   1.406       .  A
N483        O498   1.262       .  A
N483        O499   1.262       .  A
N485        O496   1.263       .  A
N485        O497   1.263       .  A
C487        C488   1.413       .  A
C487        N492   1.437       .  S
C488        C489   1.407       .  A
C488        H493   1.083       .  S
C489        C490   1.418       .  A
C490        C491   1.409       .  A
C490        N494   1.440       .  S
C491        H495   1.083       .  S
N492        O502   1.263       .  A
N492        O503   1.262       .  A
N494        O500   1.263       .  A
N494        O501   1.263       .  A
C504        C505   1.406       .  A
C504        C509   1.401       .  A
C504        H514   1.084       .  S
C505        C510   1.484       .  S
C505        C506   1.411       .  A
C506        C507   1.403       .  A
C506        N511   1.440       .  S
C507        C508   1.408       .  A
C507        H512   1.084       .  S
C508        C509   1.412       .  A
C509        N513   1.434       .  S
C510        C515   1.411   1_455  A
C510        C519   1.405       .  A
N511        O526   1.263       .  A
N511        O527   1.263       .  A
N513        O524   1.263       .  A
N513        O525   1.262       .  A
C515        C516   1.402       .  A
C515        N520   1.439       .  S
C516        C517   1.407       .  A
C516        H521   1.084       .  S
C517        C518   1.412       .  A
C518        C519   1.400   1_655  A
C518        N522   1.430   1_655  S
C519        H523   1.084       .  S
N520        O530   1.263       .  A
N520        O531   1.263       .  A
N522        O528   1.262       .  A
N522        O529   1.262       .  A
C532        C533   1.400       .  A
C532        C537   1.411   1_655  A
C532        H542   1.083       .  S
C533        C538   1.487       .  S
C533        C534   1.408       .  A
C534        C535   1.403       .  A
C534        N539   1.434       .  S
C535        C536   1.406   1_655  A
C535        H540   1.083       .  S
C536        C537   1.427       .  A
C537        N541   1.445       .  S
C538        C543   1.409       .  A
C538        C547   1.406       .  A
N539        O554   1.262       .  A
N539        O555   1.262       .  A
N541        O552   1.263       .  A
N541        O553   1.262       .  A
C543        C544   1.398       .  A
C543        N548   1.430       .  S
C544        C545   1.401       .  A
C544        H549   1.085       .  S
C545        C546   1.413       .  A
C546        C547   1.411       .  A
C546        N550   1.434       .  S
C547        H551   1.084       .  S
N548        O558   1.262       .  A
N548        O559   1.262       .  A
N550        O556   1.262       .  A
N550        O557   1.262       .  A
C560        C561   1.408       .  A
C560        C565   1.411       .  A
C560        H570   1.083       .  S
C561        C566   1.494       .  S
C561        C562   1.413       .  A
C562        C563   1.403       .  A
C562        N567   1.436       .  S
C563        C564   1.405       .  A
C563        H568   1.084       .  S
C564        C565   1.411       .  A
C565        N569   1.432       .  S
C566        C571   1.407       .  A
C566        C575   1.402       .  A
N567        O582   1.262       .  A
N567        O583   1.263       .  A
N569        O580   1.262       .  A
N569        O581   1.262       .  A
C571        C572   1.402       .  A
C571        N576   1.429       .  S
C572        C573   1.409       .  A
C572        H577   1.084       .  S
C573        C574   1.426       .  A
C574        C575   1.411       .  A
C574        N578   1.439       .  S
C575        H579   1.083       .  S
N576        O586   1.262       .  A
N576        O587   1.262       .  A
N578        O584   1.257       .  A
N578        O585   1.262       .  A
C588        C589   1.402       .  A
C588        C593   1.400       .  A
C588        H598   1.084       .  S
C589        C594   1.484       .  S
C589        C590   1.416       .  A
C590        C591   1.402       .  A
C590        N595   1.437       .  S
C591        C592   1.403       .  A
C591        H596   1.084       .  S
C592        C593   1.417       .  A
C593        N597   1.436       .  S
C594        C599   1.415       .  A
C594        C603   1.403       .  A
N595        O610   1.263       .  A
N595        O611   1.262       .  A
N597        O608   1.263       .  A
N597        O609   1.263       .  A
C599        C600   1.400       .  A
C599        N604   1.436       .  S
C600        C601   1.404       .  A
C600        H605   1.084       .  S
C601        C602   1.416       .  A
C602        C603   1.402       .  A
C602        N606   1.435       .  S
C603        H607   1.084       .  S
N604        O614   1.262       .  A
N604        O615   1.263       .  A
N606        O612   1.262       .  A
N606        O613   1.263       .  A
C616        C617   1.403       .  A
C616        C621   1.403       .  A
C616        H626   1.083       .  S
C617        C622   1.504       .  S
C617        C618   1.420       .  A
C618        C619   1.412       .  A
C618        N623   1.437       .  S
C619        C620   1.407       .  A
C619        H624   1.083       .  S
C620        C621   1.416       .  A
C621        N625   1.435       .  S
C622        C627   1.419       .  A
C622        C631   1.410       .  A
N623        O638   1.262       .  A
N623        O639   1.263       .  A
N625        O636   1.262       .  A
N625        O637   1.263       .  A
C627        C628   1.401       .  A
C627        N632   1.435       .  S
C628        C629   1.400       .  A
C628        H633   1.085       .  S
C629        C630   1.410       .  A
C630        C631   1.411       .  A
C630        N634   1.433       .  S
C631        H635   1.083       .  S
N632        O642   1.263       .  A
N632        O643   1.262       .  A
N634        O640   1.262       .  A
N634        O641   1.262       .  A
C644        C645   1.410       .  A
C644        C649   1.413       .  A
C644        H654   1.084       .  S
C645        C650   1.499       .  S
C645        C646   1.416       .  A
C646        C647   1.405       .  A
C646        N651   1.438       .  S
C647        C648   1.407       .  A
C647        H652   1.084       .  S
C648        C649   1.412       .  A
C649        N653   1.432       .  S
C650        C655   1.414       .  A
C650        C659   1.404       .  A
N651        O666   1.262   1_565  A
N651        O667   1.263   1_565  A
N653        O664   1.262       .  A
N653        O665   1.262       .  A
C655        C656   1.407       .  A
C655        N660   1.439       .  S
C656        C657   1.409       .  A
C656        H661   1.083   1_565  S
C657        C658   1.425       .  A
C658        C659   1.412       .  A
C658        N662   1.439       .  S
C659        H663   1.084       .  S
N660        O670   1.262       .  A
N660        O671   1.263   1_565  A
N662        O668   1.262       .  A
N662        O669   1.258       .  A
C672        C673   1.401       .  A
C672        C677   1.401       .  A
C672        H682   1.084       .  S
C673        C678   1.481   1_565  S
C673        C674   1.415       .  A
C674        C675   1.401       .  A
C674        N679   1.437   1_565  S
C675        C676   1.405       .  A
C675        H680   1.083       .  S
C676        C677   1.417       .  A
C677        N681   1.436       .  S
C678        C683   1.412       .  A
C678        C687   1.405       .  A
N679        O694   1.262       .  A
N679        O695   1.263       .  A
N681        O692   1.263       .  A
N681        O693   1.263       .  A
C683        C684   1.400       .  A
C683        N688   1.436       .  S
C684        C685   1.404       .  A
C684        H689   1.084       .  S
C685        C686   1.406       .  A
C686        C687   1.398       .  A
C686        N690   1.431       .  S
C687        H691   1.084   1_545  S
N688        O698   1.261   1_545  A
N688        O699   1.263       .  A
N690        O696   1.262       .  A
N690        O697   1.262       .  A
C700        C701   1.406       .  A
C700        C705   1.409       .  A
C700        H710   1.084       .  S
C701        C706   1.490       .  S
C701        C702   1.414       .  A
C702        C703   1.401       .  A
C702        N707   1.437       .  S
C703        C704   1.403       .  A
C703        H708   1.085       .  S
C704        C705   1.412       .  A
C705        N709   1.437       .  S
C706        C711   1.416       .  A
C706        C715   1.398       .  A
N707        O722   1.263       .  A
N707        O723   1.263       .  A
N709        O720   1.263       .  A
N709        O721   1.262       .  A
C711        C712   1.410       .  A
C711        N716   1.438       .  S
C712        C713   1.405       .  A
C712        H717   1.084       .  S
C713        C714   1.421       .  A
C714        C715   1.401       .  A
C714        N718   1.437       .  S
C715        H719   1.084       .  S
N716        O726   1.262       .  A
N716        O727   1.263       .  A
N718        O724   1.259       .  A
N718        O725   1.263       .  A
C728        C729   1.398       .  A
C728        C733   1.405       .  A
C728        H738   1.084       .  S
C729        C734   1.496       .  S
C729        C730   1.413       .  A
C730        C731   1.415       .  A
C730        N735   1.429       .  S
C731        C732   1.408       .  A
C731        H736   1.083       .  S
C732        C733   1.426       .  A
C733        N737   1.437       .  S
C734        C739   1.413       .  A
C734        C743   1.403       .  A
N735        O750   1.262       .  A
N735        O751   1.262       .  A
N737        O748   1.263       .  A
N737        O749   1.263       .  A
C739        C740   1.406       .  A
C739        N744   1.432       .  S
C740        C741   1.404       .  A
C740        H745   1.099       .  S
C741        C742   1.421       .  A
C742        C743   1.412       .  A
C742        N746   1.439       .  S
C743        H747   1.094       .  S
N744        O754   1.263       .  A
N744        O755   1.261       .  A
N746        O752   1.262       .  A
N746        O753   1.263       .  A
C756        C757   1.406       .  A
C756        C761   1.403       .  A
C756        H766   1.084   1_655  S
C757        C762   1.481       .  S
C757        C758   1.413       .  A
C758        C759   1.396       .  A
C758        N763   1.437       .  S
C759        C760   1.405       .  A
C759        H764   1.084       .  S
C760        C761   1.412       .  A
C761        N765   1.436   1_655  S
C762        C767   1.412       .  A
C762        C771   1.403       .  A
N763        O778   1.263       .  A
N763        O779   1.263       .  A
N765        O776   1.263       .  A
N765        O777   1.263   1_455  A
C767        C768   1.398       .  A
C767        N772   1.435   1_655  S
C768        C769   1.404       .  A
C768        H773   1.084   1_655  S
C769        C770   1.415       .  A
C770        C771   1.400       .  A
C770        N774   1.434       .  S
C771        H775   1.084       .  S
N772        O782   1.262       .  A
N772        O783   1.263       .  A
N774        O780   1.262       .  A
N774        O781   1.262       .  A
C784        C785   1.411   1_545  A
C784        C789   1.417       .  A
C784        H794   1.083   1_545  S
C785        C790   1.505       .  S
C785        C786   1.411       .  A
C786        C787   1.407   1_565  A
C786        N791   1.430       .  S
C787        C788   1.407       .  A
C787        H792   1.084       .  S
C788        C789   1.413       .  A
C789        N793   1.428       .  S
C790        C795   1.409       .  A
C790        C799   1.404       .  A
N791        O806   1.262       .  A
N791        O807   1.262       .  A
N793        O804   1.262       .  A
N793        O805   1.262       .  A
C795        C796   1.410       .  A
C795        N800   1.427       .  S
C796        C797   1.410       .  A
C796        H801   1.083       .  S
C797        C798   1.420       .  A
C798        C799   1.413       .  A
C798        N802   1.428       .  S
C799        H803   1.084       .  S
N800        O810   1.262       .  A
N800        O811   1.261       .  A
N802        O808   1.262       .  A
N802        O809   1.260       .  A
C812        C813   1.410       .  A
C812        C817   1.413       .  A
C812        H822   1.084       .  S
C813        C818   1.496       .  S
C813        C814   1.412       .  A
C814        C815   1.405       .  A
C814        N819   1.438       .  S
C815        C816   1.410       .  A
C815        H820   1.084       .  S
C816        C817   1.411       .  A
C817        N821   1.428       .  S
C818        C823   1.416       .  A
C818        C827   1.400       .  A
N819        O834   1.263       .  A
N819        O835   1.262       .  A
N821        O832   1.262       .  A
N821        O833   1.262       .  A
C823        C824   1.413       .  A
C823        N828   1.438       .  S
C824        C825   1.408       .  A
C824        H829   1.083       .  S
C825        C826   1.422       .  A
C826        C827   1.406       .  A
C826        N830   1.437       .  S
C827        H831   1.084       .  S
N828        O838   1.263       .  A
N828        O839   1.263       .  A
N830        O836   1.260       .  A
N830        O837   1.263       .  A
C840        C841   1.405       .  A
C840        C845   1.397       .  A
C840        H850   1.084       .  S
C841        C846   1.485       .  S
C841        C842   1.415       .  A
C842        C843   1.403   1_655  A
C842        N847   1.438       .  S
C843        C844   1.402       .  A
C843        H848   1.084       .  S
C844        C845   1.409   1_455  A
C845        N849   1.435       .  S
C846        C851   1.413       .  A
C846        C855   1.402       .  A
N847        O862   1.263       .  A
N847        O863   1.263       .  A
N849        O860   1.262       .  A
N849        O861   1.262   1_655  A
C851        C852   1.402       .  A
C851        N856   1.438       .  S
C852        C853   1.408       .  A
C852        H857   1.083       .  S
C853        C854   1.416       .  A
C854        C855   1.396       .  A
C854        N858   1.431       .  S
C855        H859   1.084       .  S
N856        O866   1.263       .  A
N856        O867   1.262       .  A
N858        O864   1.262       .  A
N858        O865   1.262       .  A
C868        C869   1.406       .  A
C868        C873   1.408       .  A
C868        H878   1.084       .  S
C869        C874   1.502       .  S
C869        C870   1.415       .  A
C870        C871   1.410       .  A
C870        N875   1.430       .  S
C871        C872   1.404       .  A
C871        H876   1.084       .  S
C872        C873   1.411       .  A
C873        N877   1.428       .  S
C874        C879   1.414       .  A
C874        C883   1.405       .  A
N875        O890   1.262       .  A
N875        O891   1.262       .  A
N877        O888   1.262       .  A
N877        O889   1.262       .  A
C879        C880   1.410       .  A
C879        N884   1.439       .  S
C880        C881   1.409       .  A
C880        H885   1.084       .  S
C881        C882   1.425       .  A
C882        C883   1.414       .  A
C882        N886   1.441       .  S
C883        H887   1.083       .  S
N884        O894   1.262       .  A
N884        O895   1.263       .  A
N886        O892   1.259       .  A
N886        O893   1.263       .  A
C896        C897   1.397       .  A
C896        C901   1.400       .  A
C896        H906   1.084       .  S
C897        C902   1.488       .  S
C897        C898   1.414       .  A
C898        C899   1.409       .  A
C898        N903   1.434       .  S
C899        C900   1.405       .  A
C899        H904   1.083       .  S
C900        C901   1.419       .  A
C901        N905   1.434       .  S
C902        C907   1.413       .  A
C902        C911   1.406       .  A
N903        O918   1.262       .  A
N903        O919   1.262       .  A
N905        O916   1.263       .  A
N905        O917   1.258       .  A
C907        C908   1.400       .  A
C907        N912   1.437       .  S
C908        C909   1.405       .  A
C908        H913   1.084       .  S
C909        C910   1.411       .  A
C910        C911   1.409       .  A
C910        N914   1.431       .  S
C911        H915   1.084       .  S
N912        O922   1.263       .  A
N912        O923   1.263       .  A
N914        O920   1.262       .  A
N914        O921   1.262       .  A
C924        C925   1.404       .  A
C924        C929   1.399       .  A
C924        H934   1.084       .  S
C925        C930   1.478       .  S
C925        C926   1.412       .  A
C926        C927   1.397       .  A
C926        N931   1.439       .  S
C927        C928   1.404       .  A
C927        H932   1.084       .  S
C928        C929   1.413       .  A
C929        N933   1.435       .  S
C930        C935   1.413       .  A
C930        C939   1.399       .  A
N931        O946   1.263       .  A
N931        O947   1.263       .  A
N933        O944   1.263       .  A
N933        O945   1.263       .  A
C935        C936   1.404       .  A
C935        N940   1.438       .  S
C936        C937   1.407       .  A
C936        H941   1.084       .  S
C937        C938   1.418       .  A
C938        C939   1.391       .  A
C938        N942   1.432       .  S
C939        H943   1.084       .  S
N940        O950   1.263       .  A
N940        O951   1.263       .  A
N942        O948   1.262       .  A
N942        O949   1.262       .  A
