geometry optimzed in LAMMPS
_audit_creation_date              2020-11-30 
_audit_creation_method            'lammps2cif' 
_symmetry_space_group_name_H-M    'P1' 
_symmetry_Int_Tables_number       1 
_symmetry_cell_setting            triclinic 
loop_ 
_symmetry_equiv_pos_as_xyz 
  x,y,z 
_cell_length_a                    32.6427369 
_cell_length_b                    32.42299755472275 
_cell_length_c                    26.764738085118687 
_cell_angle_alpha                 90.19907989101696 
_cell_angle_beta                  89.80677764331018 
_cell_angle_gamma                 120.29650467781654 
loop_ 
_atom_site_label 
_atom_site_type_symbol 
_atom_site_fract_x 
_atom_site_fract_y 
_atom_site_fract_z 
_atom_site_charge 
C1          C  0.33402175  0.67160683  0.20833293     0.45700
H2          H  0.33542270  0.67188806  0.16688949    -0.03400
C3          C  0.33176771  0.67128646  0.30516669     0.45700
H4          H  0.33015548  0.67032447  0.34643903    -0.03400
C5          C  0.35937873  0.72313602  0.23092909    -0.17100
C6          C  0.28226449  0.64649980  0.22867155    -0.16800
C7          C  0.35810238  0.64507985  0.23207531    -0.17200
C8          C  0.36012833  0.72345796  0.28293878    -0.17200
C9          C  0.28034283  0.64500242  0.28063136    -0.16700
C10         C  0.35818240  0.64571280  0.28403607    -0.17100
N11         N  0.10025403  0.30997563  0.73901207    -0.36400
N12         N  0.14846264  0.29221458  0.81917552    -0.57000
N13         N  0.22217791  0.29854771  0.75569255    -0.36400
N14         N  0.16956476  0.31080967  0.67397329    -0.57000
C15         C  0.08980203  0.32961663  0.77800612     0.27200
C16         C  0.09324675  0.32884226  0.69739865     0.27200
C17         C  0.24212084  0.30611418  0.80152225     0.27200
C18         C  0.25736112  0.32632804  0.72338817     0.27200
C19         C  0.11392139  0.29420678  0.84460635     0.35800
C20         C  0.16867100  0.27587306  0.85115422     0.35800
C21         C  0.13984843  0.30985245  0.63866829     0.35800
C22         C  0.20721383  0.31431504  0.64962580     0.35800
C23         C  0.07321683  0.35883011  0.76092506    -0.21700
C24         C  0.07496377  0.35802451  0.71000951    -0.21700
C25         C  0.29089406  0.33644460  0.79748826    -0.21700
C26         C  0.30037377  0.34942248  0.74838388    -0.21700
C27         C  0.10982372  0.27619925  0.89225448    -0.22800
C28         C  0.14378862  0.26320662  0.89601128    -0.22800
C29         C  0.15710109  0.30931646  0.59144036    -0.22800
C30         C  0.20037156  0.31286728  0.59845310    -0.22800
C31         C  0.09490815  0.32209833  0.82869183    -0.18100
C32         C  0.10607047  0.32334465  0.64856548    -0.18100
C33         C  0.25155730  0.33293720  0.67233616    -0.18100
C34         C  0.21706884  0.29058684  0.84738657    -0.18100
H35         H  0.06167389  0.37927960  0.78276155     0.14800
H36         H  0.06590983  0.37860573  0.68538754     0.14800
H37         H  0.31694553  0.35063617  0.82707080     0.14800
H38         H  0.33494332  0.37465791  0.73346925     0.14800
H39         H  0.08747737  0.27608625  0.92226666     0.13100
H40         H  0.15373878  0.25270657  0.93014809     0.13100
H41         H  0.14279530  0.31191846  0.55593276     0.13100
H42         H  0.22590570  0.31848995  0.56948400     0.13100
H43         H  0.11012106  0.28406349  0.74028379     0.26300
H44         H  0.18650825  0.27577486  0.74714992     0.26300
N45         N  0.09771254  0.78853095  0.74395616    -0.36400
N46         N  0.14389766  0.85426797  0.82847742    -0.57000
N47         N  0.22842342  0.91132214  0.77255425    -0.36400
N48         N  0.18205043  0.84788019  0.68735118    -0.57000
C49         C  0.07458624  0.75960701  0.78291558     0.27200
C50         C  0.09102571  0.75965631  0.70444402     0.27200
C51         C  0.24432628  0.92313465  0.82001133     0.27200
C52         C  0.26554521  0.91663283  0.74494086     0.27200
C53         C  0.10335861  0.82103530  0.84995827     0.35800
C54         C  0.16692233  0.88852335  0.86309245     0.35800
C55         C  0.15468678  0.81933847  0.65009721     0.35800
C56         C  0.22296656  0.88074453  0.66607233     0.35800
C57         C  0.04965052  0.71245539  0.76678462    -0.21700
C58         C  0.05956363  0.71255861  0.71719345    -0.21700
C59         C  0.29234852  0.93782490  0.82173799    -0.21700
C60         C  0.30552014  0.93329878  0.77462606    -0.21700
C61         C  0.09917520  0.83532323  0.89758346    -0.22800
C62         C  0.13919858  0.87879453  0.90561719    -0.22800
C63         C  0.17742081  0.83531799  0.60453531    -0.22800
C64         C  0.22081017  0.87463838  0.61465060    -0.22800
C65         C  0.07855611  0.77366677  0.83343081    -0.18100
C66         C  0.11539868  0.77379330  0.65841555    -0.18100
C67         C  0.26491211  0.90785966  0.69332492    -0.18100
C68         C  0.21637768  0.91809375  0.86263554    -0.18100
H69         H  0.02793223  0.68073273  0.78863276     0.14800
H70         H  0.04721629  0.68101758  0.69411672     0.14800
H71         H  0.31549157  0.94872414  0.85385643     0.14800
H72         H  0.34051634  0.94052628  0.76388869     0.14800
H73         H  0.07225065  0.81447861  0.92511554     0.13100
H74         H  0.14946875  0.89781043  0.94086251     0.13100
H75         H  0.16544901  0.81826831  0.56845633     0.13100
H76         H  0.24902249  0.89399977  0.58785525     0.13100
H77         H  0.11754954  0.82563193  0.74451953     0.26300
H78         H  0.19492069  0.90229955  0.75931899     0.26300
N79         N  0.79260485  0.71650121  0.21422813    -0.36400
N80         N  0.83640829  0.70113850  0.30114033    -0.57000
N81         N  0.91407263  0.72655864  0.23411049    -0.36400
N82         N  0.87211688  0.74432451  0.14310100    -0.57000
C83         C  0.76217794  0.71168023  0.25094729     0.27200
C84         C  0.78225437  0.73422994  0.17385966     0.27200
C85         C  0.93231263  0.72066492  0.27673478     0.27200
C86         C  0.94722132  0.73997127  0.19823265     0.27200
C87         C  0.79034902  0.67687076  0.31465908     0.35800
C88         C  0.85723282  0.67970692  0.32461877     0.35800
C89         C  0.83508045  0.72953318  0.11140825     0.35800
C90         C  0.90121906  0.73090117  0.12184230     0.35800
C91         C  0.73241829  0.72756842  0.23443832    -0.21700
C92         C  0.74511147  0.74182161  0.18560679    -0.21700
C93         C  0.97974251  0.73537350  0.26937369    -0.21700
C94         C  0.98911570  0.74741219  0.21967459    -0.21700
C95         C  0.78246774  0.64205689  0.34948590    -0.22800
C96         C  0.82478439  0.64353313  0.35544124    -0.22800
C97         C  0.84307174  0.71130804  0.06793954    -0.22800
C98         C  0.88510847  0.71216178  0.07459138    -0.22800
C99         C  0.75490393  0.68425859  0.29409537    -0.18100
C100        C  0.79095531  0.72417252  0.12516906    -0.18100
C101        C  0.93424042  0.72394243  0.14889641    -0.18100
C102        C  0.90411446  0.69004068  0.31551988    -0.18100
H103        H  0.70222697  0.72517269  0.25401898     0.14800
H104        H  0.72562562  0.75113510  0.15978036     0.14800
H105        H  0.00319494  0.73183555  0.29525416     0.14800
H106        H  0.02106442  0.75430246  0.20024860     0.14800
H107        H  0.74921254  0.61646363  0.36675707     0.13100
H108        H  0.83009736  0.61904650  0.37803283     0.13100
H109        H  0.81906796  0.69499265  0.03680505     0.13100
H110        H  0.89962983  0.69626139  0.04981626     0.13100
H111        H  0.80992540  0.69701499  0.21237633     0.26300
H112        H  0.87823266  0.71043997  0.22639386     0.26300
O113        O  0.06810372  0.59113249  0.94903175    -0.78300
C114        C  0.11377998  0.56037391  0.09386029     0.82700
O115        O  0.99674186  0.41827593  0.95210466    -0.79400
O116        O  0.97420524  0.43564383  0.11632579    -0.80900
O117        O  0.93453816  0.55018877  0.05228408    -0.80700
O118        O  0.99561367  0.58143589  0.95605588    -0.79300
Zn119      Zn  0.06154588  0.53359201  0.98967612     1.55700
O120        O  0.97736638  0.54754036  0.11625662    -0.80700
Cd121      Cd  0.95215371  0.52278117  0.99357345     1.59700
Cd122      Cd  0.95379299  0.43426615  0.99015348     1.59600
O123        O  0.89327460  0.48270374  0.94547616    -0.80700
O124        O  0.99542269  0.50013842  0.01555597    -1.91200
Cd125      Cd  0.00319152  0.50480611  0.09014867     1.59900
O126        O  0.89578361  0.41638731  0.94108190    -0.80700
O127        O  0.07376076  0.54018820  0.11616243    -0.79300
C128        C  0.04023077  0.43815330  0.94058275     0.83200
C129        C  0.03829736  0.60528665  0.94145288     0.82900
O130        O  0.11507612  0.56126274  0.04588863    -0.78300
C131        C  0.95277491  0.56316970  0.09540992     0.83700
O132        O  0.06920885  0.48248565  0.95006499    -0.78400
C133        C  0.87708035  0.44085665  0.92737329     0.83800
C134        C  0.95178214  0.39530235  0.09412233     0.84100
O135        O  0.93653932  0.38986533  0.04946901    -0.80800
O136        O  0.09994216  0.54378988  0.43888962    -0.78300
C137        C  0.04403560  0.59889000  0.54961753     0.82700
O138        O  0.99044157  0.40804709  0.54644270    -0.79400
O139        O  0.89585384  0.47838333  0.56427107    -0.80900
O140        O  0.95588655  0.52691064  0.38125002    -0.80700
O141        O  0.05594639  0.52055939  0.37066162    -0.79300
Zn142      Zn  0.05264641  0.51944284  0.49832467     1.55700
O143        O  0.92830258  0.54163623  0.45187099    -0.80700
Cd144      Cd  0.98668909  0.48686558  0.40398843     1.59700
Cd145      Cd  0.94534593  0.42192864  0.50870003     1.59600
O146        O  0.95699755  0.41565899  0.38126584    -0.80700
O147        O  0.98522737  0.48705109  0.47970337    -1.91200
Cd148      Cd  0.95008909  0.51650744  0.50956351     1.59900
O149        O  0.92850285  0.37366144  0.45220920    -0.80700
O150        O  0.99966274  0.57796563  0.54184849    -0.79300
C151        C  0.03525180  0.42736368  0.54840015     0.83200
C152        C  0.09681484  0.54149933  0.39130469     0.82900
O153        O  0.06865968  0.57946877  0.53856583    -0.78300
C154        C  0.93696061  0.54746975  0.40509949     0.83700
O155        O  0.06302640  0.46999881  0.53317356    -0.78400
C156        C  0.93949917  0.37673003  0.40611998     0.83800
C157        C  0.87499606  0.43459920  0.57789053     0.84100
O158        O  0.88767611  0.40674058  0.55810505    -0.80800
N159        N  0.81066862  0.07528291  0.23611236    -0.36400
N160        N  0.87196462  0.13824831  0.15798254    -0.57000
N161        N  0.93228579  0.19379186  0.24291872    -0.36400
N162        N  0.87490979  0.12818427  0.32083853    -0.57000
C163        C  0.78703888  0.05112769  0.19476286     0.27200
C164        C  0.78727322  0.04858273  0.27613587     0.27200
C165        C  0.95820440  0.21802925  0.20301585     0.27200
C166        C  0.95943396  0.21281844  0.28374740     0.27200
C167        C  0.83066619  0.11532473  0.13237663     0.35800
C168        C  0.89689438  0.18207380  0.13719903     0.35800
C169        C  0.83385129  0.10225193  0.34613561     0.35800
C170        C  0.90150368  0.16736407  0.34931130     0.35800
C171        C  0.74934879  0.00704462  0.20858428    -0.21700
C172        C  0.74922756  0.00562952  0.25996573    -0.21700
C173        C  0.00338032  0.25215239  0.21837034    -0.21700
C174        C  0.00408912  0.24891794  0.26961279    -0.21700
C175        C  0.83148720  0.14296534  0.09253343    -0.22800
C176        C  0.87337183  0.18538399  0.09576971    -0.22800
C177        C  0.83682044  0.12205742  0.39297918    -0.22800
C178        C  0.87958815  0.16362931  0.39477671    -0.22800
C179        C  0.78969119  0.07328380  0.14860455    -0.18100
C180        C  0.79054225  0.06829367  0.32395152    -0.18100
C181        C  0.93973539  0.21023827  0.33092940    -0.18100
C182        C  0.93725801  0.22114922  0.15871795    -0.18100
H183        H  0.72177066  0.98104916  0.18446254     0.14800
H184        H  0.72169450  0.97793238  0.28262542     0.14800
H185        H  0.03078622  0.28008939  0.19568832     0.14800
H186        H  0.03205668  0.27385891  0.29408901     0.14800
H187        H  0.80337947  0.13495541  0.06613738     0.13100
H188        H  0.88391163  0.21621981  0.07220610     0.13100
H189        H  0.80897796  0.11035819  0.42075757     0.13100
H190        H  0.89132870  0.19010893  0.42424652     0.13100
H191        H  0.83301619  0.11172608  0.23782812     0.26300
H192        H  0.89564988  0.17611706  0.24355684     0.26300
N193        N  0.29474087  0.08938846  0.28163014    -0.36400
N194        N  0.26945442  0.12566830  0.37045683    -0.57000
N195        N  0.29144750  0.20566138  0.30152418    -0.36400
N196        N  0.31796787  0.16832461  0.21704981    -0.57000
C197        C  0.27757127  0.05353323  0.31483208     0.27200
C198        C  0.30056231  0.07251589  0.23790264     0.27200
C199        C  0.27503213  0.21623258  0.34294367     0.27200
C200        C  0.29941943  0.23881586  0.26655473     0.27200
C201        C  0.28352348  0.09704833  0.39176606     0.35800
C202        C  0.28046122  0.16134760  0.40353564     0.35800
C203        C  0.34201298  0.14974970  0.19437546     0.35800
C204        C  0.34123910  0.21516257  0.20567431     0.35800
C205        C  0.26950492  0.01205206  0.29094411    -0.21700
C206        C  0.28389533  0.02404277  0.24202308    -0.21700
C207        C  0.26884613  0.25475664  0.33260619    -0.21700
C208        C  0.28421132  0.26896041  0.28431194    -0.21700
C209        C  0.29927437  0.11200712  0.44001651    -0.22800
C210        C  0.29666957  0.15249370  0.44780184    -0.22800
C211        C  0.37922023  0.18434046  0.16632648    -0.22800
C212        C  0.37852459  0.22582340  0.17321519    -0.22800
C213        C  0.28996017  0.06307398  0.36522333    -0.18100
C214        C  0.33198256  0.10247913  0.20096181    -0.18100
C215        C  0.33007137  0.24868383  0.22536493    -0.18100
C216        C  0.28455337  0.20563981  0.39118428    -0.18100
H217        H  0.26043824  0.97848953  0.30854505     0.14800
H218        H  0.28707982  0.00125280  0.21452730     0.14800
H219        H  0.25974569  0.27424684  0.35896434     0.14800
H220        H  0.28855447  0.30083346  0.26645843     0.14800
H221        H  0.31432427  0.09729796  0.46541786     0.13100
H222        H  0.30971394  0.17541283  0.48036576     0.13100
H223        H  0.40527848  0.18068765  0.14469594     0.13100
H224        H  0.40385717  0.26024269  0.15772075     0.13100
H225        H  0.31389929  0.12500345  0.29198313     0.26300
H226        H  0.30740353  0.18512796  0.30184386     0.26300
N227        N  0.63080848  0.76377033  0.73049184    -0.36400
N228        N  0.71553393  0.85960343  0.70160857    -0.57000
N229        N  0.63336352  0.88147274  0.71272772    -0.36400
N230        N  0.56250923  0.78975295  0.74021155    -0.57000
C231        C  0.67215741  0.76419607  0.73119696     0.27200
C232        C  0.60034734  0.72915854  0.76157505     0.27200
C233        C  0.67780158  0.91923534  0.71366559     0.27200
C234        C  0.60671866  0.89089921  0.74407166     0.27200
C235        C  0.72508808  0.82888914  0.67740409     0.35800
C236        C  0.72786913  0.89639868  0.67012111     0.35800
C237        C  0.53375998  0.74341707  0.75003163     0.35800
C238        C  0.53643399  0.81086067  0.74169983     0.35800
C239        C  0.66851280  0.72940810  0.76379330    -0.21700
C240        C  0.62330468  0.70776453  0.78386120    -0.21700
C241        C  0.67959860  0.95415286  0.74492437    -0.21700
C242        C  0.63471658  0.93589131  0.76506318    -0.21700
C243        C  0.74836010  0.84857062  0.63275958    -0.22800
C244        C  0.74999764  0.89168019  0.62803542    -0.22800
C245        C  0.48737767  0.73360231  0.75458028    -0.22800
C246        C  0.48910862  0.77681019  0.74944970    -0.22800
C247        C  0.70176287  0.78002295  0.68927124    -0.18100
C248        C  0.55162427  0.71451905  0.76635814    -0.18100
C249        C  0.55772724  0.85963954  0.75276074    -0.18100
C250        C  0.70967639  0.92728501  0.67484389    -0.18100
H251        H  0.69419509  0.71805027  0.76908131     0.14800
H252        H  0.60825517  0.67773725  0.80925550     0.14800
H253        H  0.70944185  0.98972004  0.75075056     0.14800
H254        H  0.62372095  0.95424900  0.79086414     0.14800
H255        H  0.75782010  0.83116333  0.60415214     0.13100
H256        H  0.76135303  0.91426194  0.59526156     0.13100
H257        H  0.45665569  0.70012646  0.76550216     0.13100
H258        H  0.46009185  0.78323281  0.75627242     0.13100
H259        H  0.62245741  0.78132447  0.70350466     0.26300
H260        H  0.62122874  0.85310068  0.68749286     0.26300
O261        O  0.45242428  0.93383079  0.57166710    -0.78300
C262        C  0.46583380  0.89666928  0.41182697     0.82700
O263        O  0.61715314  0.02146215  0.54639104    -0.79400
O264        O  0.58567574  0.03828838  0.38982288    -0.80900
O265        O  0.45427164  0.05250468  0.46843430    -0.80700
O266        O  0.45009076  0.00132423  0.56969826    -0.79300
Zn267      Zn  0.50166069  0.94710131  0.51631751     1.55700
O268        O  0.47339751  0.03216078  0.39556129    -0.80700
Cd269      Cd  0.49574958  0.04746873  0.52107843     1.59700
Cd270      Cd  0.59242224  0.06062156  0.51389788     1.59600
O271        O  0.53383708  0.11028524  0.56417329    -0.80700
O272        O  0.52621573  0.01345392  0.49266389    -1.91200
Cd273      Cd  0.51812886  0.00740939  0.41826896     1.59900
O274        O  0.60350972  0.11495952  0.56713687    -0.80700
O275        O  0.48470403  0.93711419  0.39015845    -0.79300
C276        C  0.60212448  0.97745001  0.55391263     0.83200
C277        C  0.43588935  0.95999766  0.58705705     0.82900
O278        O  0.46854431  0.89455032  0.45954350    -0.78300
C279        C  0.44849354  0.04441152  0.42180295     0.83700
O280        O  0.55933673  0.94500407  0.54406070    -0.78400
C281        C  0.57583830  0.12988765  0.58169608     0.83800
C282        C  0.62699360  0.06526553  0.40777205     0.84100
O283        O  0.63459154  0.08449946  0.45100243    -0.80800
O284        O  0.46564453  0.58120132  0.45504327    -0.78300
C285        C  0.42359648  0.48757240  0.59178889     0.82700
O286        O  0.60008289  0.58945991  0.55440431    -0.79400
O287        O  0.52015666  0.43153767  0.58481922    -0.80900
O288        O  0.44350855  0.41907128  0.43070778    -0.80700
O289        O  0.44989871  0.52462970  0.39936522    -0.79300
Zn290      Zn  0.48775371  0.55680032  0.51710297     1.55700
O291        O  0.42483012  0.40083053  0.51195527    -0.80700
Cd292      Cd  0.48795242  0.49298406  0.43008699     1.59700
Cd293      Cd  0.57432487  0.52840849  0.51447365     1.59600
O294        O  0.55093019  0.52419178  0.38851630    -0.80700
O295        O  0.50784785  0.50997349  0.50071818    -1.91200
Cd296      Cd  0.47973350  0.45638059  0.54866416     1.59900
O297        O  0.60733660  0.55037658  0.44779411    -0.80700
O298        O  0.45967876  0.48509048  0.60333290    -0.79300
C299        C  0.58588825  0.61812945  0.56651366     0.83200
C300        C  0.44805343  0.56163917  0.41263714     0.82900
O301        O  0.42723758  0.51801214  0.55945173    -0.78300
C302        C  0.41863975  0.39011782  0.46567781     0.83700
O303        O  0.54466869  0.61101962  0.55464270    -0.78400
C304        C  0.59409407  0.54938047  0.40286507     0.83800
C305        C  0.56462755  0.44721266  0.58446092     0.84100
O306        O  0.59136132  0.48308569  0.55681859    -0.80800
O307        O  0.43051128  0.88968229  0.05290302    -0.78300
C308        C  0.37455597  0.97438953  0.97812543     0.82700
O309        O  0.53843864  0.98033283  0.91672124    -0.79400
O310        O  0.51208591  0.10486617  0.93594010    -0.80900
O311        O  0.47848399  0.03999731  0.11822564    -0.80700
O312        O  0.47224820  0.93451193  0.11673008    -0.79300
Zn313      Zn  0.44541921  0.94050642  0.99706454     1.55700
O314        O  0.48299455  0.09073107  0.05907316    -0.80700
Cd315      Cd  0.50775107  0.00365504  0.08361685     1.59700
Cd316      Cd  0.55420738  0.03261699  0.96854657     1.59600
O317        O  0.57996526  0.03015549  0.09220202    -0.80700
O318        O  0.49581808  0.00629816  0.01057499    -1.91200
Cd319      Cd  0.47694922  0.05472355  0.99466749     1.59900
O320        O  0.60831777  0.03899723  0.01406318    -0.80700
O321        O  0.40590015  0.01842600  0.98061245    -0.79300
C322        C  0.50284729  0.93888598  0.90883627     0.83200
C323        C  0.44322307  0.89343176  0.09860899     0.82900
O324        O  0.38505941  0.94166265  0.98360358    -0.78300
C325        C  0.46982347  0.07179302  0.10202729     0.83700
O326        O  0.46559335  0.91988098  0.93590045    -0.78400
C327        C  0.61327414  0.03828571  0.06132726     0.83800
C328        C  0.55276427  0.11890567  0.91632339     0.84100
O329        O  0.57550834  0.09756281  0.92776118    -0.80800
O330        O  0.37950258  0.44235986  0.98239682    -0.78300
C331        C  0.43972536  0.55853982  0.09783504     0.82700
O332        O  0.52302405  0.56387514  0.91173789    -0.79400
O333        O  0.57935049  0.55920096  0.08107400    -0.80900
O334        O  0.45866375  0.39649029  0.06660910    -0.80700
O335        O  0.40733822  0.39316374  0.96836295    -0.79300
Zn336      Zn  0.43591082  0.50647685  0.99831491     1.55700
O337        O  0.47398125  0.45474551  0.12195329    -0.80700
Cd338      Cd  0.47362839  0.42832506  0.99784172     1.59700
Cd339      Cd  0.54295725  0.52818809  0.95959856     1.59600
O340        O  0.51682939  0.41331067  0.94857424    -0.80700
O341        O  0.48952122  0.49606960  0.00834727    -1.91200
Cd342      Cd  0.50609760  0.51710535  0.07951140     1.59900
O343        O  0.56104057  0.48442677  0.91472373    -0.80700
O344        O  0.47687610  0.55741274  0.11053797    -0.79300
C345        C  0.48679848  0.56881488  0.90822158     0.83200
C346        C  0.37340948  0.40171908  0.96926627     0.82900
O347        O  0.41842306  0.53809597  0.05723018    -0.78300
C348        C  0.45479575  0.41066462  0.10997625     0.83700
O349        O  0.45162101  0.54932795  0.93821337    -0.78400
C350        C  0.54791142  0.43991329  0.91606532     0.83800
C351        C  0.61069382  0.58179448  0.04728919     0.84100
O352        O  0.60155423  0.57608983  0.00055053    -0.80800
C353        C  0.66859300  0.33788317  0.70617240     0.45700
H354        H  0.66919166  0.33669276  0.66468604    -0.03400
C355        C  0.66616036  0.34022703  0.80272853     0.45700
H356        H  0.66494014  0.34133787  0.84413357    -0.03400
C357        C  0.64358952  0.28714536  0.72979613    -0.17100
C358        C  0.71930976  0.36505272  0.72917890    -0.16800
C359        C  0.64158551  0.36284584  0.72608280    -0.17200
C360        C  0.64226924  0.28804977  0.78165814    -0.17200
C361        C  0.71813905  0.36687226  0.78129969    -0.16700
C362        C  0.63979884  0.36400084  0.77799289    -0.17100
C363        C  0.60349451  0.44933813  0.84328441    -0.26100
C364        C  0.56929445  0.41929866  0.87889891    -0.14200
C365        C  0.55641839  0.37027494  0.87775826     0.36400
C366        C  0.57965171  0.35399857  0.84450540    -0.25600
C367        C  0.61451812  0.38426183  0.80978645    -0.14800
C368        C  0.62583009  0.43291219  0.80921690     0.37500
N369        N  0.66151363  0.46774121  0.77666274    -0.89100
H370        H  0.61394566  0.48678042  0.84225235     0.18600
H371        H  0.57001688  0.31676050  0.84540781     0.18600
N372        N  0.51966952  0.33669049  0.91029698    -0.88100
H373        H  0.64445234  0.47813443  0.75088720     0.36000
H374        H  0.67910892  0.45376746  0.75652356     0.41100
H375        H  0.51531031  0.30263355  0.90603262     0.40700
H376        H  0.48779401  0.33392633  0.89877327     0.35600
C377        C  0.62371509  0.19420967  0.88245553    -0.26100
C378        C  0.57461782  0.16138297  0.88057918    -0.14200
C379        C  0.54765361  0.17039333  0.84512897     0.36400
C380        C  0.57029589  0.21093862  0.81287414    -0.25600
C381        C  0.61938974  0.24411279  0.81556511    -0.14800
C382        C  0.64582887  0.23527897  0.85176167     0.37500
N383        N  0.69576110  0.26686698  0.85775844    -0.89100
H384        H  0.64526359  0.18859701  0.90920032     0.18600
H385        H  0.54928812  0.21709288  0.78589055     0.18600
N386        N  0.49737914  0.13816083  0.84149243    -0.88100
H387        H  0.70157660  0.30000099  0.86987655     0.36000
H388        H  0.71238100  0.27104990  0.82322221     0.41100
H389        H  0.49215626  0.10515370  0.82939108     0.40700
H390        H  0.48264296  0.14975001  0.81418362     0.35600
C391        C  0.55429953  0.38727212  0.65165428    -0.26100
C392        C  0.58480096  0.42412660  0.61854299    -0.14200
C393        C  0.63385613  0.43918916  0.62063007     0.36400
C394        C  0.65078884  0.41870152  0.65599731    -0.25600
C395        C  0.62043490  0.38312427  0.68996143    -0.14800
C396        C  0.57110706  0.36629529  0.68632637     0.37500
N397        N  0.53660965  0.32659430  0.71533069    -0.89100
H398        H  0.51650444  0.37406282  0.65053686     0.18600
H399        H  0.68838816  0.43092236  0.65731990     0.18600
N400        N  0.66668647  0.47545715  0.58712804    -0.88100
H401        H  0.52155360  0.33969193  0.74079311     0.36000
H402        H  0.55198207  0.31062686  0.73586438     0.41100
H403        H  0.65875406  0.46122785  0.55099425     0.40700
H404        H  0.70140663  0.48351763  0.59442270     0.35600
C405        C  0.62898601  0.17851230  0.65409480    -0.26100
C406        C  0.59213877  0.16966307  0.62051204    -0.14200
C407        C  0.57060013  0.19818044  0.62581852     0.36400
C408        C  0.58675099  0.23447861  0.66300039    -0.25600
C409        C  0.62345838  0.24314985  0.69642950    -0.14800
C410        C  0.64449039  0.21423293  0.69156979     0.37500
N411        N  0.68232845  0.22066143  0.72353508    -0.89100
H412        H  0.64584763  0.15711299  0.65157697     0.18600
H413        H  0.57102797  0.25694310  0.66535651     0.18600
N414        N  0.53299882  0.19112227  0.59273770    -0.88100
H415        H  0.66930399  0.21260378  0.75994581     0.36000
H416        H  0.70942782  0.25635836  0.72224891     0.41100
H417        H  0.54733272  0.20042417  0.55677084     0.40700
H418        H  0.52053466  0.21424567  0.60188082     0.35600
C419        C  0.61915244  0.70362600  0.58695445    -0.26100
C420        C  0.61953512  0.66124971  0.59455048    -0.14200
C421        C  0.65339784  0.66098454  0.62739711     0.36400
C422        C  0.68519194  0.70298689  0.65282278    -0.25600
C423        C  0.68248302  0.74449528  0.64801503    -0.14800
C424        C  0.64972415  0.74494725  0.61363490     0.37500
N425        N  0.64518664  0.78635197  0.60781217    -0.89100
H426        H  0.59405213  0.70443022  0.56113387     0.18600
H427        H  0.70947049  0.70225500  0.67983213     0.18600
N428        N  0.65375885  0.61753312  0.63694642    -0.88100
H429        H  0.65179767  0.79679279  0.57036386     0.36000
H430        H  0.61012256  0.77686072  0.61577674     0.41100
H431        H  0.62176643  0.59390039  0.65463660     0.40700
H432        H  0.68079897  0.62358498  0.66194307     0.35600
C433        C  0.66133471  0.90931181  0.59887053    -0.26100
C434        C  0.69749408  0.94426947  0.62911058    -0.14200
C435        C  0.70771724  0.99182468  0.62613931     0.36400
C436        C  0.67697316  0.00182368  0.59972813    -0.25600
C437        C  0.63649758  0.96540854  0.57540415    -0.14800
C438        C  0.63053999  0.91931801  0.57206839     0.37500
N439        N  0.59259421  0.88257508  0.54308746    -0.89100
H440        H  0.65388778  0.87286071  0.60050507     0.18600
H441        H  0.68380393  0.03817434  0.60042631     0.18600
N442        N  0.74781592  0.03023353  0.65108316    -0.88100
H443        H  0.59294939  0.85056342  0.54540517     0.36000
H444        H  0.59904541  0.89311364  0.50564758     0.41100
H445        H  0.76835545  0.01811700  0.66855544     0.40700
H446        H  0.73506343  0.04364104  0.67883809     0.35600
C447        C  0.51173704  0.68177485  0.84680512    -0.26100
C448        C  0.52151459  0.67312498  0.79811789    -0.14200
C449        C  0.50945471  0.62672941  0.78325794     0.36400
C450        C  0.49318450  0.59069101  0.81945081    -0.25600
C451        C  0.48791511  0.60065590  0.86931191    -0.14800
C452        C  0.49489121  0.64566091  0.88263009     0.37500
N453        N  0.48910947  0.65592181  0.93342240    -0.89100
H454        H  0.52080183  0.71757619  0.85796942     0.18600
H455        H  0.48761498  0.55577849  0.80958789     0.18600
N456        N  0.51691430  0.61753004  0.73245290    -0.88100
H457        H  0.46460938  0.66768794  0.93397655     0.36000
H458        H  0.52164078  0.68394123  0.94601850     0.41100
H459        H  0.49448012  0.62373428  0.70990402     0.40700
H460        H  0.50663374  0.58154887  0.72780127     0.35600
C461        C  0.52907463  0.85582795  0.83826315    -0.26100
C462        C  0.53391919  0.87395133  0.78971593    -0.14200
C463        C  0.52184484  0.90893249  0.77922012     0.36400
C464        C  0.50847121  0.92797949  0.81883491    -0.25600
C465        C  0.50639429  0.91168380  0.86771164    -0.14800
C466        C  0.51515914  0.87433277  0.87758610     0.37500
N467        N  0.51348641  0.85809690  0.92791621    -0.89100
H468        H  0.53872204  0.82897721  0.84582067     0.18600
H469        H  0.50152193  0.95682779  0.81205202     0.18600
N470        N  0.52389722  0.92524730  0.72889171    -0.88100
H471        H  0.52274771  0.83157620  0.92878652     0.36000
H472        H  0.47828774  0.84202845  0.94010674     0.41100
H473        H  0.55931873  0.94294523  0.71732560     0.40700
H474        H  0.51283875  0.95039674  0.72771787     0.35600
C475        C  0.34258899  0.30485250  0.15803588    -0.26100
C476        C  0.35678079  0.29760403  0.20475485    -0.14200
C477        C  0.40214611  0.33166346  0.22370702     0.36400
C478        C  0.43361369  0.36995138  0.19327898    -0.25600
C479        C  0.42083221  0.37406975  0.14450167    -0.14800
C480        C  0.37421609  0.34258887  0.12774723     0.37500
N481        N  0.35921045  0.34834545  0.07929656    -0.89100
H482        H  0.30804733  0.27892209  0.14340002     0.18600
H483        H  0.46894835  0.39490584  0.20674564     0.18600
N484        N  0.41861913  0.32665223  0.27181408    -0.88100
H485        H  0.32971676  0.35258821  0.08383829     0.36000
H486        H  0.34853977  0.31700308  0.05885895     0.41100
H487        H  0.39242586  0.29714664  0.29100597     0.40700
H488        H  0.42547052  0.35652998  0.29315018     0.35600
C489        C  0.30251249  0.27386244  0.44803423    -0.26100
C490        C  0.31869278  0.24826934  0.42006127    -0.14200
C491        C  0.36800991  0.26839644  0.41142549     0.36400
C492        C  0.39931667  0.31450351  0.42740620    -0.25600
C493        C  0.38303364  0.34128795  0.45235339    -0.14800
C494        C  0.33417567  0.32053964  0.46427497     0.37500
N495        N  0.31515783  0.34603712  0.49048444    -0.89100
H496        H  0.26481100  0.25862009  0.45453764     0.18600
H497        H  0.43687176  0.32988224  0.41962121     0.18600
N498        N  0.38746541  0.24350080  0.38535737    -0.88100
H499        H  0.29156646  0.34892853  0.46641814     0.36000
H500        H  0.34131792  0.38090342  0.49916613     0.41100
H501        H  0.37261675  0.23396278  0.34983420     0.40700
H502        H  0.37943006  0.21275668  0.40529193     0.35600
C503        C  0.41585983  0.08773830  0.37777957    -0.26100
C504        C  0.40839628  0.04565605  0.39977656    -0.14200
C505        C  0.36186733  0.00845483  0.41055578     0.36400
C506        C  0.32318941  0.01458109  0.39978237    -0.25600
C507        C  0.33074737  0.05749917  0.37939196    -0.14800
C508        C  0.37746647  0.09416096  0.36786728     0.37500
N509        N  0.38610768  0.13850758  0.34714397    -0.89100
H510        H  0.45168280  0.11663131  0.37070012     0.18600
H511        H  0.28731265  0.98626902  0.40767645     0.18600
N512        N  0.35448417  0.96537924  0.43401893    -0.88100
H513        H  0.40332908  0.14341750  0.31283499     0.36000
H514        H  0.40934217  0.16591483  0.37099079     0.41100
H515        H  0.36590150  0.94837804  0.40902284     0.40700
H516        H  0.31832205  0.94188088  0.44019793     0.35600
C517        C  0.39939856  0.08789331  0.20491125    -0.26100
C518        C  0.36354433  0.08839597  0.17644343    -0.14200
C519        C  0.36277034  0.08322155  0.12443289     0.36400
C520        C  0.39944758  0.08007091  0.10121675    -0.25600
C521        C  0.43620879  0.08088754  0.12928883    -0.14800
C522        C  0.43591263  0.08400081  0.18169462     0.37500
N523        N  0.47295317  0.08420277  0.21076265    -0.89100
H524        H  0.39967512  0.09217668  0.24507179     0.18600
H525        H  0.39872175  0.07581766  0.06097972     0.18600
N526        N  0.32534131  0.08248956  0.09560907    -0.88100
H527        H  0.46741746  0.08691831  0.24885291     0.36000
H528        H  0.50479425  0.11496667  0.20129853     0.41100
H529        H  0.29363734  0.05195034  0.10589162     0.40700
H530        H  0.33028684  0.07900618  0.05758448     0.35600
C531        C  0.70311648  0.10768429  0.36114207    -0.26100
C532        C  0.66681995  0.06579352  0.38220461    -0.14200
C533        C  0.67029166  0.02408262  0.38362641     0.36400
C534        C  0.71081695  0.02527727  0.36444000    -0.25600
C535        C  0.74716151  0.06698079  0.34299118    -0.14800
C536        C  0.74308217  0.10850928  0.34050862     0.37500
N537        N  0.78040103  0.15172983  0.31855630    -0.89100
H538        H  0.70031674  0.13959439  0.36102939     0.18600
H539        H  0.71454016  0.99400715  0.36717426     0.18600
N540        N  0.63297217  0.98096617  0.40577403    -0.88100
H541        H  0.77222376  0.17900064  0.32031167     0.36000
H542        H  0.78261671  0.14508816  0.28072239     0.41100
H543        H  0.63172829  0.98749192  0.44386985     0.40700
H544        H  0.64071614  0.95342181  0.40322607     0.35600
C545        C  0.72847529  0.03706176  0.08061546    -0.26100
C546        C  0.74376545  0.06202873  0.12584733    -0.14200
C547        C  0.71669435  0.07943574  0.14898152     0.36400
C548        C  0.67457488  0.07142019  0.12706355    -0.25600
C549        C  0.65905612  0.04694137  0.08156986    -0.14800
C550        C  0.68624174  0.02937926  0.05795309     0.37500
N551        N  0.67020599  0.00248428  0.01224815    -0.89100
H552        H  0.74970656  0.02405492  0.06291671     0.18600
H553        H  0.65417181  0.08502490  0.14552720     0.18600
N554        N  0.73249605  0.10600320  0.19467254    -0.88100
H555        H  0.69219132  0.98895303  0.00233819     0.36000
H556        H  0.67401612  0.02623065  0.98386827     0.41100
H557        H  0.70621858  0.08823692  0.22175722     0.40700
H558        H  0.73626288  0.13961204  0.18882541     0.35600
C559        C  0.96931786  0.32092025  0.40719470    -0.26100
C560        C  0.93975129  0.33523010  0.38432551    -0.14200
C561        C  0.91270592  0.31032296  0.34253272     0.36400
C562        C  0.91462629  0.27031581  0.32543850    -0.25600
C563        C  0.94334823  0.25522573  0.34916418    -0.14800
C564        C  0.97161429  0.28130668  0.39018336     0.37500
N565        N  0.00224116  0.26845481  0.41573960    -0.89100
H566        H  0.99142222  0.34128767  0.43837744     0.18600
H567        H  0.89273439  0.24991347  0.29412211     0.18600
N568        N  0.88296817  0.32507249  0.31838846    -0.88100
H569        H  0.03702523  0.29686942  0.41184139     0.36000
H570        H  0.00136906  0.23879707  0.39927348     0.41100
H571        H  0.85677522  0.32067170  0.34395016     0.40700
H572        H  0.86537306  0.30271487  0.28805099     0.35600
C573        C  0.83384689  0.44805448  0.65260003    -0.26100
C574        C  0.83594517  0.41620822  0.61782033    -0.14200
C575        C  0.80025030  0.36733358  0.62180633     0.36400
C576        C  0.76467596  0.35204085  0.65958779    -0.25600
C577        C  0.76284800  0.38368542  0.69476771    -0.14800
C578        C  0.79816539  0.43271786  0.69010388     0.37500
N579        N  0.79742224  0.46850262  0.72087384    -0.89100
H580        H  0.86012703  0.48571395  0.65045500     0.18600
H581        H  0.73702383  0.31489015  0.66051643     0.18600
N582        N  0.79903613  0.33326821  0.58644037    -0.88100
H583        H  0.80343415  0.46295443  0.75776776     0.36000
H584        H  0.76392390  0.46515611  0.71831295     0.41100
H585        H  0.79187519  0.34220114  0.55132536     0.40700
H586        H  0.77106956  0.29894373  0.59446872     0.35600
C587        C  0.97826742  0.33758578  0.09122878    -0.26100
C588        C  0.95123511  0.35403685  0.11602205    -0.14200
C589        C  0.92343266  0.32930978  0.15748146     0.36400
C590        C  0.92144533  0.28702651  0.17196199    -0.25600
C591        C  0.94667971  0.26922001  0.14543900    -0.14800
C592        C  0.97607752  0.29515583  0.10509870     0.37500
N593        N  0.00342521  0.27940572  0.07721064    -0.89100
H594        H  0.00067196  0.35761137  0.06002411     0.18600
H595        H  0.89861130  0.26680335  0.20282359     0.18600
N596        N  0.89578382  0.34529400  0.18395087    -0.88100
H597        H  0.99016648  0.27205137  0.04075245     0.36000
H598        H  0.99956091  0.24772745  0.09151177     0.41100
H599        H  0.87258474  0.34744488  0.15867207     0.40700
H600        H  0.91876337  0.37958396  0.19775425     0.35600
C601        C  0.79212291  0.37065193  0.81725087    -0.26100
C602        C  0.76090466  0.38872325  0.81642111    -0.14200
C603        C  0.76878760  0.42455198  0.85243287     0.36400
C604        C  0.80591846  0.43993555  0.88783527    -0.25600
C605        C  0.83653814  0.42115903  0.88952368    -0.14800
C606        C  0.82897511  0.38566545  0.85342275     0.37500
N607        N  0.85911323  0.36524100  0.85282628    -0.89100
H608        H  0.78675556  0.34333523  0.79035459     0.18600
H609        H  0.81088184  0.46733577  0.91445736     0.18600
N610        N  0.74079916  0.44738168  0.85365052    -0.88100
H611        H  0.85097015  0.34210550  0.82238781     0.36000
H612        H  0.85126217  0.34406500  0.88475942     0.41100
H613        H  0.71761285  0.43666930  0.82355560     0.40700
H614        H  0.76385329  0.48399196  0.84850434     0.35600
C615        C  0.92843111  0.61904835  0.41067857    -0.26100
C616        C  0.92926813  0.58387502  0.38014116    -0.14200
C617        C  0.92706594  0.58746334  0.32771547     0.36400
C618        C  0.92116460  0.62414094  0.30770285    -0.25600
C619        C  0.91916347  0.65825318  0.33858834    -0.14800
C620        C  0.92425905  0.65643998  0.39065785     0.37500
N621        N  0.92500255  0.69154007  0.42425581    -0.89100
H622        H  0.93201168  0.61828483  0.45085063     0.18600
H623        H  0.91695263  0.62557414  0.26768514     0.18600
N624        N  0.92950595  0.55351411  0.29498069    -0.88100
H625        H  0.89454826  0.67457165  0.44654125     0.36000
H626        H  0.92389467  0.71894033  0.40509091     0.41100
H627        H  0.96440183  0.56035324  0.29577778     0.40700
H628        H  0.92334706  0.55917065  0.25799036     0.35600
C629        C  0.90687361  0.59575101  0.13324541    -0.26100
C630        C  0.95080599  0.60326651  0.11737811    -0.14200
C631        C  0.98921149  0.65050392  0.11058409     0.36400
C632        C  0.98230025  0.68898317  0.11979998    -0.25600
C633        C  0.93833967  0.68165253  0.13583203    -0.14800
C634        C  0.89990903  0.63408090  0.14285658     0.37500
N635        N  0.85330805  0.62268729  0.15918622    -0.89100
H636        H  0.87715942  0.55959264  0.13664038     0.18600
H637        H  0.01148805  0.72503750  0.11399856     0.18600
N638        N  0.03483603  0.66093600  0.09176789    -0.88100
H639        H  0.82990363  0.60568222  0.12953750     0.36000
H640        H  0.85103928  0.65264289  0.16807913     0.41100
H641        H  0.03663654  0.63016863  0.08530936     0.40700
H642        H  0.05998435  0.68024566  0.11934997     0.35600
C643        C  0.65809726  0.63128783  0.38912383    -0.26100
C644        C  0.63009141  0.58506574  0.36935699    -0.14200
C645        C  0.63772996  0.57525622  0.32014218     0.36400
C646        C  0.67614572  0.61120493  0.29309880    -0.25600
C647        C  0.70669797  0.65596591  0.31500919    -0.14800
C648        C  0.69633573  0.66679584  0.36270836     0.37500
N649        N  0.72502252  0.71253605  0.38622332    -0.89100
H650        H  0.65106111  0.63955485  0.42637033     0.18600
H651        H  0.68476098  0.60309298  0.25656774     0.18600
N652        N  0.60846871  0.52853444  0.29905528    -0.88100
H653        H  0.74193641  0.70762258  0.41681712     0.36000
H654        H  0.75148708  0.73676474  0.36225480     0.41100
H655        H  0.61395038  0.50451993  0.31988468     0.40700
H656        H  0.61923855  0.52732855  0.26249981     0.35600
C657        C  0.72395205  0.64171164  0.12161666    -0.26100
C658        C  0.74804764  0.68700272  0.09927737    -0.14200
C659        C  0.72942112  0.69627087  0.05633317     0.36400
C660        C  0.68512662  0.66043341  0.03816955    -0.25600
C661        C  0.65938614  0.61634521  0.06309944    -0.14800
C662        C  0.67963181  0.60646138  0.10437205     0.37500
N663        N  0.65489940  0.56083967  0.12889842    -0.89100
H664        H  0.73925831  0.63448404  0.15393456     0.18600
H665        H  0.66971547  0.66763567  0.00594869     0.18600
N666        N  0.75510845  0.74187037  0.03203609    -0.88100
H667        H  0.67448729  0.55976385  0.15919323     0.36000
H668        H  0.65213699  0.53505996  0.10339531     0.41100
H669        H  0.75695003  0.76769519  0.05689276     0.40700
H670        H  0.73653179  0.74275463  0.00069863     0.35600
C671        C  0.31856247  0.88489381  0.65199828    -0.26100
C672        C  0.31060094  0.92147033  0.66877328    -0.14200
C673        C  0.34742981  0.96952454  0.66607409     0.36400
C674        C  0.39081580  0.97957948  0.64621394    -0.25600
C675        C  0.39717951  0.94375618  0.62391403    -0.14800
C676        C  0.36144671  0.89558362  0.62880438     0.37500
N677        N  0.36780372  0.85812641  0.60845364    -0.89100
H678        H  0.29068852  0.84794888  0.65605854     0.18600
H679        H  0.41862747  0.01676617  0.64425815     0.18600
N680        N  0.34205823  0.00900874  0.68211178    -0.88100
H681        H  0.33732402  0.82484780  0.61405630     0.36000
H682        H  0.39493039  0.85773378  0.62872305     0.41100
H683        H  0.30742304  0.99793547  0.69335820     0.40700
H684        H  0.34832269  0.03098672  0.65112068     0.35600
C685        C  0.06424844  0.71933032  0.59253039    -0.26100
C686        C  0.10489703  0.73556838  0.62164810    -0.14200
C687        C  0.12894476  0.70929865  0.62281896     0.36400
C688        C  0.10971791  0.66580334  0.59705786    -0.25600
C689        C  0.06675041  0.64754763  0.57118632    -0.14800
C690        C  0.04492407  0.67572312  0.56732341     0.37500
N691        N  0.00259717  0.65996217  0.53854655    -0.89100
H692        H  0.04583390  0.73932743  0.59173221     0.18600
H693        H  0.12721089  0.64500638  0.59962897     0.18600
N694        N  0.17089464  0.72378669  0.65221677    -0.88100
H695        H  0.00937037  0.68575699  0.51138716     0.36000
H696        H  0.97607945  0.65778030  0.56231156     0.41100
H697        H  0.18164821  0.75576524  0.67117365     0.40700
H698        H  0.19840826  0.73016308  0.62760094     0.35600
C699        C  0.29053807  0.91227827  0.96309239    -0.26100
C700        C  0.32524957  0.96094359  0.96521962    -0.14200
C701        C  0.31390433  0.99512346  0.94753089     0.36400
C702        C  0.27180852  0.97979882  0.92096448    -0.25600
C703        C  0.24185432  0.93127261  0.91084072    -0.14800
C704        C  0.24902140  0.89693667  0.93534381     0.37500
N705        N  0.21705815  0.84674297  0.92705823    -0.89100
H706        H  0.29789321  0.88581386  0.97843965     0.18600
H707        H  0.26593012  0.00602967  0.90240689     0.18600
N708        N  0.34672947  0.04532874  0.95203542    -0.88100
H709        H  0.22692063  0.82629687  0.94854357     0.36000
H710        H  0.22028145  0.83921305  0.88971545     0.41100
H711        H  0.32937195  0.06094449  0.96988921     0.40700
H712        H  0.35597614  0.05971458  0.91608422     0.35600
C713        C  0.10645028  0.72955943  0.88394309    -0.26100
C714        C  0.06859631  0.73634754  0.87064884    -0.14200
C715        C  0.02197305  0.70206253  0.88363533     0.36400
C716        C  0.01380718  0.65978357  0.90558881    -0.25600
C717        C  0.05117326  0.65104094  0.91653406    -0.14800
C718        C  0.09831157  0.68715659  0.90683346     0.37500
N719        N  0.13752180  0.68082700  0.91959621    -0.89100
H720        H  0.14229133  0.75631459  0.87349868     0.18600
H721        H  0.97721806  0.63323090  0.91340439     0.18600
N722        N  0.98198604  0.70765822  0.87234210    -0.88100
H723        H  0.16974227  0.71203831  0.91237847     0.36000
H724        H  0.13638005  0.65465021  0.89577299     0.41100
H725        H  0.99272611  0.74103790  0.85666023     0.40700
H726        H  0.96550962  0.70683515  0.90619241     0.35600
C727        C  0.29595600  0.41424074  0.63636903    -0.26100
C728        C  0.29305197  0.36995097  0.64462663    -0.14200
C729        C  0.33154247  0.36393154  0.63202727     0.36400
C730        C  0.37332718  0.40328506  0.61528120    -0.25600
C731        C  0.37726157  0.44826176  0.60863307    -0.14800
C732        C  0.33755389  0.45340295  0.61737033     0.37500
N733        N  0.34016632  0.49846078  0.60925114    -0.89100
H734        H  0.26601556  0.41847342  0.64610797     0.18600
H735        H  0.40314753  0.39836828  0.60732090     0.18600
N736        N  0.32975045  0.31884883  0.63646652    -0.88100
H737        H  0.30849096  0.49659435  0.62020036     0.36000
H738        H  0.34310319  0.50464262  0.57075210     0.41100
H739        H  0.29606979  0.29144817  0.64683907     0.40700
H740        H  0.35320479  0.32219250  0.66481112     0.35600
C741        C  0.27675690  0.29150141  0.90511300    -0.26100
C742        C  0.24592071  0.30818654  0.89343672    -0.14200
C743        C  0.25129479  0.34964330  0.91728749     0.36400
C744        C  0.29064194  0.37642428  0.94765434    -0.25600
C745        C  0.32612375  0.36444720  0.95192408    -0.14800
C746        C  0.31740761  0.31969848  0.93363912     0.37500
N747        N  0.35090992  0.30407498  0.94099988    -0.89100
H748        H  0.27223488  0.25938965  0.88730546     0.18600
H749        H  0.29591002  0.40955681  0.96345683     0.18600
N750        N  0.21967855  0.36720601  0.90650029    -0.88100
H751        H  0.36207205  0.29919690  0.90592679     0.36000
H752        H  0.33349031  0.27098417  0.95901094     0.41100
H753        H  0.22556325  0.37879971  0.86941477     0.40700
H754        H  0.22765122  0.39708141  0.92842561     0.35600
C755        C  0.04571219  0.32230093  0.59416890    -0.26100
C756        C  0.09306560  0.34563537  0.60877342    -0.14200
C757        C  0.12317424  0.39449776  0.59817202     0.36400
C758        C  0.10383011  0.42024665  0.57685890    -0.25600
C759        C  0.05504107  0.39807304  0.56681018    -0.14800
C760        C  0.02604933  0.34779551  0.57329307     0.37500
N761        N  0.97644230  0.32283455  0.56067755    -0.89100
H762        H  0.02316279  0.28476622  0.60299292     0.18600
H763        H  0.12652716  0.45821707  0.57056293     0.18600
N764        N  0.17240214  0.41828037  0.61229849    -0.88100
H765        H  0.96029528  0.28671529  0.57028001     0.36000
H766        H  0.97394249  0.32377060  0.52188845     0.41100
H767        H  0.17413290  0.41835438  0.65129845     0.40700
H768        H  0.18972804  0.45408277  0.60128918     0.35600
C769        C  0.10208638  0.42809773  0.89627217    -0.26100
C770        C  0.05634923  0.40727868  0.91671059    -0.14200
C771        C  0.02617668  0.35662514  0.91396443     0.36400
C772        C  0.04137499  0.32924485  0.88800575    -0.25600
C773        C  0.08588400  0.35054412  0.86561060    -0.14800
C774        C  0.11728274  0.40045200  0.87073818     0.37500
N775        N  0.16399189  0.42446040  0.84898177    -0.89100
H776        H  0.12585301  0.46636062  0.89877140     0.18600
H777        H  0.01761659  0.29114164  0.88343528     0.18600
N778        N  0.97979584  0.33284314  0.93654248    -0.88100
H779        H  0.16444066  0.44723948  0.82115421     0.36000
H780        H  0.17204994  0.40057702  0.83160080     0.41100
H781        H  0.98455532  0.33578721  0.97521355     0.40700
H782        H  0.96176260  0.29625587  0.92857487     0.35600
C783        C  0.16026367  0.61076048  0.16779421    -0.26100
C784        C  0.15875886  0.58378209  0.12556246    -0.14200
C785        C  0.19926599  0.57892313  0.11689452     0.36400
C786        C  0.23867835  0.60070321  0.14988708    -0.25600
C787        C  0.23935549  0.62602577  0.19321015    -0.14800
C788        C  0.19993296  0.63262945  0.20055429     0.37500
N789        N  0.20069790  0.66290615  0.24026447    -0.89100
H790        H  0.13028441  0.61565532  0.17487602     0.18600
H791        H  0.26885122  0.59654353  0.14181530     0.18600
N792        N  0.20158824  0.55089163  0.07639103    -0.88100
H793        H  0.16936845  0.66424800  0.24083605     0.36000
H794        H  0.22837530  0.69755528  0.23296697     0.41100
H795        H  0.17004793  0.53368992  0.05628004     0.40700
H796        H  0.20565527  0.52364589  0.09199792     0.35600
C797        C  0.19964610  0.56916722  0.29826967    -0.26100
C798        C  0.23334237  0.61724845  0.31026016    -0.14200
C799        C  0.21934062  0.63887251  0.34774572     0.36400
C800        C  0.17510568  0.61373600  0.37191844    -0.25600
C801        C  0.14204106  0.56618144  0.36055960    -0.14800
C802        C  0.15442154  0.54366446  0.32263649     0.37500
N803        N  0.12194034  0.49462536  0.31011034    -0.89100
H804        H  0.20860623  0.55135259  0.26961653     0.18600
H805        H  0.16647534  0.63199007  0.40043430     0.18600
N806        N  0.24900260  0.68711423  0.36222707    -0.88100
H807        H  0.13664482  0.48284023  0.28275465     0.36000
H808        H  0.09196669  0.49294955  0.29411754     0.41100
H809        H  0.25917654  0.70802844  0.32992030     0.40700
H810        H  0.27783993  0.68856408  0.38047928     0.35600
C811        C  0.42769274  0.64640516  0.18820580    -0.26100
C812        C  0.37892956  0.62153129  0.19953735    -0.14200
C813        C  0.35042910  0.57621444  0.17641121     0.36400
C814        C  0.37103806  0.55798862  0.14262376    -0.25600
C815        C  0.42000046  0.58245754  0.13159250    -0.14800
C816        C  0.44846614  0.62806409  0.15461739     0.37500
N817        N  0.49816931  0.65787977  0.14367875    -0.89100
H818        H  0.44992526  0.68135290  0.20471668     0.18600
H819        H  0.34842486  0.52326010  0.12584770     0.18600
N820        N  0.30054972  0.54701450  0.18686907    -0.88100
H821        H  0.50306119  0.68985960  0.12883555     0.36000
H822        H  0.50924997  0.64318543  0.11577675     0.41100
H823        H  0.28959319  0.56238466  0.21422096     0.40700
H824        H  0.29490052  0.51487032  0.20200839     0.35600
C825        C  0.43479519  0.62957476  0.38612761    -0.26100
C826        C  0.42511283  0.58241500  0.37850399    -0.14200
C827        C  0.39350278  0.55668889  0.33845471     0.36400
C828        C  0.37211800  0.57748672  0.30958273    -0.25600
C829        C  0.38174965  0.62464940  0.31728300    -0.14800
C830        C  0.41462162  0.65084240  0.35621845     0.37500
N831        N  0.43082177  0.70023755  0.36494479    -0.89100
H832        H  0.45940486  0.65097739  0.41528581     0.18600
H833        H  0.34727242  0.55601971  0.28074893     0.18600
N834        N  0.38168865  0.50896242  0.32604326    -0.88100
H835        H  0.40258475  0.70409032  0.37707255     0.36000
H836        H  0.44427815  0.71858141  0.33145034     0.41100
H837        H  0.36730196  0.48742330  0.35760708     0.40700
H838        H  0.41262409  0.50925974  0.31521690     0.35600
C839        C  0.39400864  0.84655959  0.17263752    -0.26100
C840        C  0.42283668  0.84966515  0.13190847    -0.14200
C841        C  0.43022100  0.81048559  0.12380178     0.36400
C842        C  0.40946351  0.77060535  0.15652474    -0.25600
C843        C  0.38057026  0.76745396  0.19745516    -0.14800
C844        C  0.37182658  0.80600464  0.20415952     0.37500
N845        N  0.33812029  0.80429168  0.23995483    -0.89100
H846        H  0.38682370  0.87536723  0.17884817     0.18600
H847        H  0.41665763  0.74183147  0.15012910     0.18600
N848        N  0.45982564  0.81034128  0.08397895    -0.88100
H849        H  0.35690844  0.82923789  0.26801095     0.36000
H850        H  0.31833966  0.77071515  0.25631570     0.41100
H851        H  0.47484412  0.84190515  0.06336016     0.40700
H852        H  0.43826374  0.78259769  0.05952826     0.35600
C853        C  0.46207911  0.84326616  0.34004658    -0.26100
C854        C  0.43919877  0.85176035  0.38031584    -0.14200
C855        C  0.39029837  0.81852806  0.38714301     0.36400
C856        C  0.36670750  0.77881972  0.35476392    -0.25600
C857        C  0.38910219  0.76864785  0.31547412    -0.11000
C858        C  0.43849240  0.80222962  0.30870449     0.37500
N859        N  0.46689243  0.79531915  0.27225376    -0.89100
H860        H  0.49939545  0.86827476  0.33358811     0.18600
H861        H  0.32952984  0.75746527  0.35925425     0.18600
N862        N  0.36218584  0.82489772  0.42454766    -0.88100
H863        H  0.47619376  0.82117131  0.24449609     0.36000
H864        H  0.44857156  0.76178919  0.25539906     0.41100
H865        H  0.38145690  0.85679397  0.44427336     0.40700
H866        H  0.35109870  0.79707806  0.45030661     0.35600
loop_ 
_geom_bond_atom_site_label_1 
_geom_bond_atom_site_label_2 
_geom_bond_distance 
_geom_bond_site_symmetry_2 
_ccdc_geom_bond_type 
C1            H2   1.110       .  S
C1            C7   1.565       .  S
C1            C6   1.556       .  S
C1            C5   1.563       .  S
C3            H4   1.106       .  S
C3            C9   1.592       .  S
C3            C8   1.580       .  S
C3           C10   1.570       .  S
C5            C8   1.392       .  D
C5          C843   1.532       .  S
C6            C9   1.392       .  D
C6          C787   1.539       .  S
C7           C10   1.391       .  D
C7          C812   1.523       .  S
C8          C857   1.549       .  S
C9          C798   1.548       .  S
C10         C829   1.546       .  S
N11          C16   1.347       .  A
N11          C15   1.350       .  A
N11          H43   1.041       .  S
N12          C19   1.344       .  A
N12          C20   1.345       .  A
N13          C18   1.354       .  A
N13          C17   1.353       .  A
N13          H44   1.042       .  S
N14          C21   1.346       .  A
N14          C22   1.342       .  A
C15          C23   1.386       .  A
C15          C31   1.404       .  A
C16          C32   1.409       .  A
C16          C24   1.390       .  A
C17          C25   1.390       .  A
C17          C34   1.418       .  A
C18          C33   1.412       .  A
C18          C26   1.386       .  A
C19          C31   1.398       .  A
C19          C27   1.382       .  A
C20          C34   1.404       .  A
C20          C28   1.389       .  A
C21          C29   1.386       .  A
C21          C32   1.400       .  A
C22          C30   1.385       .  A
C22          C33   1.397       .  A
C23          C24   1.364       .  A
C23          H35   1.082       .  S
C24          H36   1.082       .  S
C25          C26   1.367       .  A
C25          H37   1.081       .  S
C26          H38   1.082       .  S
C27          C28   1.374       .  A
C27          H39   1.082       .  S
C28          H40   1.083       .  S
C29          C30   1.372       .  A
C29          H41   1.082       .  S
C30          H42   1.083       .  S
C31         C773   1.476       .  S
C32         C756   1.468       .  S
C33         C728   1.478       .  S
C34         C742   1.481       .  S
N45          C50   1.353       .  A
N45          C49   1.351       .  A
N45          H77   1.040       .  S
N46          C53   1.343       .  A
N46          C54   1.346       .  A
N47          C52   1.352       .  A
N47          C51   1.353       .  A
N47          H78   1.042       .  S
N48          C55   1.347       .  A
N48          C56   1.344       .  A
C49          C57   1.389       .  A
C49          C65   1.411       .  A
C50          C66   1.411       .  A
C50          C58   1.386       .  A
C51          C59   1.390       .  A
C51          C68   1.416       .  A
C52          C67   1.408       .  A
C52          C60   1.385       .  A
C53          C65   1.398       .  A
C53          C61   1.384       .  A
C54          C68   1.401       .  A
C54          C62   1.386       .  A
C55          C63   1.384       .  A
C55          C66   1.402       .  A
C56          C64   1.387       .  A
C56          C67   1.403       .  A
C57          C58   1.365       .  A
C57          H69   1.081       .  S
C58          H70   1.082       .  S
C59          C60   1.362       .  A
C59          H71   1.081       .  S
C60          H72   1.082       .  S
C61          C62   1.372       .  A
C61          H73   1.083       .  S
C62          H74   1.083       .  S
C63          C64   1.372       .  A
C63          H75   1.082       .  S
C64          H76   1.083       .  S
C65         C714   1.474       .  S
C66         C686   1.479       .  S
C67         C672   1.477       .  S
C68         C703   1.478       .  S
N79          C84   1.347       .  A
N79          C83   1.347       .  A
N79         H111   1.040       .  S
N80          C87   1.347       .  A
N80          C88   1.350       .  A
N81          C86   1.343       .  A
N81          C85   1.347       .  A
N81         H112   1.034       .  S
N82          C89   1.353       .  A
N82          C90   1.352       .  A
C83          C91   1.383       .  A
C83          C99   1.405       .  A
C84         C100   1.405       .  A
C84          C92   1.388       .  A
C85          C93   1.385       .  A
C85         C102   1.410       .  A
C86         C101   1.404       .  A
C86          C94   1.389       .  A
C87          C99   1.408       .  A
C87          C95   1.386       .  A
C88         C102   1.412       .  A
C88          C96   1.388       .  A
C89          C97   1.385       .  A
C89         C100   1.409       .  A
C90          C98   1.386       .  A
C90         C101   1.410       .  A
C91          C92   1.379       .  A
C91         H103   1.082       .  S
C92         H104   1.082       .  S
C93          C94   1.377       .  A
C93         H105   1.082   1_655  S
C94         H106   1.082   1_655  S
C95          C96   1.368       .  A
C95         H107   1.082       .  S
C96         H108   1.081       .  S
C97          C98   1.371       .  A
C97         H109   1.082       .  S
C98         H110   1.083       .  S
C99         C647   1.474       .  S
C100        C658   1.481       .  S
C101        C633   1.484       .  S
C102        C619   1.484       .  S
O113        C129   1.285       .  A
O113       Zn119   2.078       .  S
C114        C784   1.527       .  S
C114        O130   1.284       .  A
C114        O127   1.275       .  A
O115        C128   1.265   1_655  A
O115       Cd122   1.998       .  S
O116        C134   1.277       .  A
O116       Cd125   2.069   1_655  S
O117        C131   1.270       .  A
O117       Cd121   2.022   1_554  S
O118        C129   1.266   1_655  A
O118       Cd121   1.980       .  S
Zn119       O130   2.133   1_556  S
Zn119       O132   2.082       .  S
Zn119       O124   1.987   1_456  S
O120        C131   1.276       .  A
O120       Cd125   2.070   1_655  S
Cd121       O123   2.127       .  S
Cd121       O124   1.984   1_556  S
Cd122       O126   2.133       .  S
Cd122       O135   2.025   1_556  S
Cd122       O124   1.985   1_556  S
O123        C133   1.276       .  A
O124       Cd125   2.009   1_655  S
Cd125       O127   2.109       .  S
O126        C133   1.276       .  A
C128        C770   1.487       .  S
C128        O132   1.286       .  A
C129        C717   1.483       .  S
C131        C630   1.456       .  S
C133        C605   1.529       .  S
C134        C588   1.454       .  S
C134        O135   1.273       .  A
O136        C152   1.277       .  A
O136       Zn142   2.074       .  S
C137        C689   1.479       .  S
C137        O153   1.280       .  A
C137        O150   1.269   1_455  A
O138        C151   1.269   1_655  A
O138       Cd145   2.018       .  S
O139        C157   1.280       .  A
O139       Cd148   2.143       .  S
O140        C154   1.282       .  A
O140       Cd144   2.096       .  S
O141        C152   1.278       .  A
O141       Cd144   2.145   1_455  S
Zn142       O153   2.045       .  S
Zn142       O155   2.029       .  S
Zn142       O147   1.966   1_455  S
O143        C154   1.276       .  A
O143       Cd148   2.038       .  S
Cd144       O146   2.092       .  S
Cd144       O147   2.027       .  S
Cd145       O149   2.039       .  S
Cd145       O158   2.142       .  S
Cd145       O147   1.997       .  S
O146        C156   1.280       .  A
O147       Cd148   1.990       .  S
Cd148       O150   2.020       .  S
O149        C156   1.274       .  A
C151        C759   1.479       .  S
C151        O155   1.279       .  A
C152        C801   1.517       .  S
C154        C616   1.486       .  S
C156        C560   1.469       .  S
C157        C574   1.533       .  S
C157        O158   1.281       .  A
N159        C164   1.347       .  A
N159        C163   1.350       .  A
N159        H191   1.030       .  S
N160        C167   1.353       .  A
N160        C168   1.351       .  A
N161        C166   1.345       .  A
N161        C165   1.343       .  A
N161        H192   1.033       .  S
N162        C169   1.350       .  A
N162        C170   1.354       .  A
C163        C171   1.386       .  A
C163        C179   1.412       .  A
C164        C180   1.409       .  A
C164        C172   1.387       .  A
C165        C173   1.387   1_655  A
C165        C182   1.400       .  A
C166        C181   1.399       .  A
C166        C174   1.384   1_655  A
C167        C179   1.413       .  A
C167        C175   1.387       .  A
C168        C182   1.410       .  A
C168        C176   1.386       .  A
C169        C177   1.388       .  A
C169        C180   1.412       .  A
C170        C178   1.384       .  A
C170        C181   1.408       .  A
C171        C172   1.376       .  A
C171        H183   1.083   1_545  S
C172        H184   1.081   1_545  S
C173        C174   1.377       .  A
C173        H185   1.083       .  S
C174        H186   1.083       .  S
C175        C176   1.368       .  A
C175        H187   1.082       .  S
C176        H188   1.082       .  S
C177        C178   1.367       .  A
C177        H189   1.083       .  S
C178        H190   1.082       .  S
C179        C546   1.485       .  S
C180        C535   1.484       .  S
C181        C563   1.484       .  S
C182        C591   1.473       .  S
N193        C198   1.343       .  A
N193        C197   1.342       .  A
N193        H225   1.035       .  S
N194        C201   1.354       .  A
N194        C202   1.352       .  A
N195        C200   1.350       .  A
N195        C199   1.346       .  A
N195        H226   1.032       .  S
N196        C203   1.348       .  A
N196        C204   1.347       .  A
C197        C205   1.387       .  A
C197        C213   1.397       .  A
C198        C214   1.403       .  A
C198        C206   1.384       .  A
C199        C207   1.391       .  A
C199        C216   1.412       .  A
C200        C215   1.411       .  A
C200        C208   1.383       .  A
C201        C213   1.410       .  A
C201        C209   1.384       .  A
C202        C216   1.414       .  A
C202        C210   1.388       .  A
C203        C211   1.386       .  A
C203        C214   1.408       .  A
C204        C212   1.388       .  A
C204        C215   1.409       .  A
C205        C206   1.379       .  A
C205        H217   1.082   1_545  S
C206        H218   1.082       .  S
C207        C208   1.379       .  A
C207        H219   1.082       .  S
C208        H220   1.082       .  S
C209        C210   1.373       .  A
C209        H221   1.083       .  S
C210        H222   1.083       .  S
C211        C212   1.368       .  A
C211        H223   1.082       .  S
C212        H224   1.082       .  S
C213        C507   1.482       .  S
C214        C518   1.473       .  S
C215        C476   1.479       .  S
C216        C490   1.481       .  S
N227        C232   1.347       .  A
N227        C231   1.343       .  A
N227        H259   1.040       .  S
N228        C235   1.348       .  A
N228        C236   1.347       .  A
N229        C234   1.347       .  A
N229        C233   1.346       .  A
N229        H260   1.044       .  S
N230        C237   1.336       .  A
N230        C238   1.335       .  A
C231        C239   1.385       .  A
C231        C247   1.397       .  A
C232        C248   1.417       .  A
C232        C240   1.389       .  A
C233        C241   1.383       .  A
C233        C250   1.397       .  A
C234        C249   1.415       .  A
C234        C242   1.390       .  A
C235        C247   1.406       .  A
C235        C243   1.386       .  A
C236        C250   1.404       .  A
C236        C244   1.385       .  A
C237        C245   1.386       .  A
C237        C248   1.402       .  A
C238        C246   1.388       .  A
C238        C249   1.400       .  A
C239        C240   1.382       .  A
C239        H251   1.082       .  S
C240        H252   1.082       .  S
C241        C242   1.382       .  A
C241        H253   1.081       .  S
C242        H254   1.082       .  S
C243        C244   1.378       .  A
C243        H255   1.082       .  S
C244        H256   1.082       .  S
C245        C246   1.381       .  A
C245        H257   1.082       .  S
C246        H258   1.082       .  S
C247        C423   1.485       .  S
C248        C448   1.470       .  S
C249        C462   1.467       .  S
C250        C434   1.479       .  S
O261        C277   1.280       .  A
O261       Zn267   2.062       .  S
C262        C854   1.519       .  S
C262        O278   1.285       .  A
C262        O275   1.274       .  A
O263        C276   1.270   1_545  A
O263       Cd270   2.017       .  S
O264        C282   1.275       .  A
O264       Cd273   2.052       .  S
O265        C279   1.269       .  A
O265       Cd269   2.021       .  S
O266        C277   1.266   1_545  A
O266       Cd269   1.976       .  S
Zn267       O278   2.125       .  S
Zn267       O280   2.059       .  S
Zn267       O272   1.984   1_565  S
O268        C279   1.277       .  A
O268       Cd273   2.083       .  S
Cd269       O271   2.113       .  S
Cd269       O272   1.970       .  S
Cd270       O274   2.147       .  S
Cd270       O283   2.061       .  S
Cd270       O272   2.000       .  S
O271        C281   1.275       .  A
O272       Cd273   2.005       .  S
Cd273       O275   2.106   1_545  S
O274        C281   1.280       .  A
C276        C437   1.480       .  S
C276        O280   1.283       .  A
C277        C675   1.473       .  S
C279        C504   1.456       .  S
C281        C406   1.526       .  S
C282        C532   1.460       .  S
C282        O283   1.277       .  A
O284        C300   1.285       .  A
O284       Zn290   2.121       .  S
C285        C731   1.473       .  S
C285        O301   1.274       .  A
C285        O298   1.260       .  A
O286        C299   1.271       .  A
O286       Cd293   2.020       .  S
O287        C305   1.273       .  A
O287       Cd296   2.101       .  S
O288        C302   1.284       .  A
O288       Cd292   2.083       .  S
O289        C300   1.280       .  A
O289       Cd292   2.138       .  S
Zn290       O301   2.063       .  S
Zn290       O303   2.063       .  S
Zn290       O295   1.981       .  S
O291        C302   1.274       .  A
O291       Cd296   2.041       .  S
Cd292       O294   2.093       .  S
Cd292       O295   1.985       .  S
Cd293       O297   2.019       .  S
Cd293       O306   2.143       .  S
Cd293       O295   1.974       .  S
O294        C304   1.281       .  A
O295       Cd296   1.977       .  S
Cd296       O298   2.009       .  S
O297        C304   1.274       .  A
C299        C420   1.474       .  S
C299        O303   1.286       .  A
C300        C826   1.538       .  S
C302        C493   1.458       .  S
C304        C644   1.467       .  S
C305        C392   1.527       .  S
C305        O306   1.280       .  A
O307        C323   1.279       .  A
O307       Zn313   2.095   1_554  S
C308        C700   1.481       .  S
C308        O324   1.278       .  A
C308        O321   1.271   1_565  A
O309        C322   1.275       .  A
O309       Cd316   2.042   1_565  S
O310        C328   1.278       .  A
O310       Cd319   2.134       .  S
O311        C325   1.276       .  A
O311       Cd315   2.069       .  S
O312        C323   1.278       .  A
O312       Cd315   2.131   1_565  S
Zn313       O324   2.023       .  S
Zn313       O326   1.998       .  S
Zn313       O318   1.961   1_566  S
O314        C325   1.272       .  A
O314       Cd319   2.032   1_554  S
Cd315       O317   2.075       .  S
Cd315       O318   2.005       .  S
Cd316       O320   2.071   1_556  S
Cd316       O329   2.155       .  S
Cd316       O318   1.994   1_556  S
O317        C327   1.281       .  A
O318       Cd319   2.002   1_554  S
Cd319       O321   2.038       .  S
O320        C327   1.278       .  A
C322        C465   1.449       .  S
C322        O326   1.274       .  A
C323        C840   1.518       .  S
C325        C521   1.464       .  S
C327        C549   1.479       .  S
C328        C378   1.528       .  S
C328        O329   1.283       .  A
O330        C346   1.278       .  A
O330       Zn336   2.008       .  S
C331        C815   1.526       .  S
C331        O347   1.280       .  A
C331        O344   1.279       .  A
O332        C345   1.275       .  A
O332       Cd339   2.044       .  S
O333        C351   1.282       .  A
O333       Cd342   2.071       .  S
O334        C348   1.276       .  A
O334       Cd338   2.047   1_554  S
O335        C346   1.270       .  A
O335       Cd338   2.030       .  S
Zn336       O347   2.106   1_556  S
Zn336       O349   2.018       .  S
Zn336       O341   1.962   1_556  S
O337        C348   1.278       .  A
O337       Cd342   2.085       .  S
Cd338       O340   2.154       .  S
Cd338       O341   2.005   1_556  S
Cd339       O343   2.152       .  S
Cd339       O352   2.068   1_556  S
Cd339       O341   1.998   1_556  S
O340        C350   1.283       .  A
O341       Cd342   2.003       .  S
Cd342       O344   2.134       .  S
O343        C350   1.282       .  A
C345        C451   1.456       .  S
C345        O349   1.276       .  A
C346        C745   1.476       .  S
C348        C479   1.471       .  S
C350        C364   1.544       .  S
C351        C661   1.471       .  S
C351        O352   1.278       .  A
C353        H354   1.111       .  S
C353        C359   1.559       .  S
C353        C358   1.558       .  S
C353        C357   1.556       .  S
C355        H356   1.110       .  S
C355        C361   1.572       .  S
C355        C360   1.566       .  S
C355        C362   1.565       .  S
C357        C360   1.389       .  D
C357        C409   1.521       .  S
C358        C361   1.397       .  D
C358        C577   1.537       .  S
C359        C362   1.392       .  D
C359        C395   1.520       .  S
C360        C381   1.530       .  S
C361        C602   1.530       .  S
C362        C367   1.541       .  S
C363        C364   1.416       .  A
C363        C368   1.425       .  A
C363        H370   1.083       .  S
C364        C365   1.425       .  A
C365        C366   1.429       .  A
C365        N372   1.437       .  S
C366        C367   1.412       .  A
C366        H371   1.084       .  S
C367        C368   1.427       .  A
C368        N369   1.437       .  S
N369        H373   1.046       .  S
N369        H374   1.041       .  S
N372        H375   1.046       .  S
N372        H376   1.046       .  S
C377        C378   1.408       .  A
C377        C382   1.415       .  A
C377        H384   1.083       .  S
C378        C379   1.424       .  A
C379        C380   1.429       .  A
C379        N386   1.437       .  S
C380        C381   1.411       .  A
C380        H385   1.084       .  S
C381        C382   1.422       .  A
C382        N383   1.431       .  S
N383        H387   1.043       .  S
N383        H388   1.044       .  S
N386        H389   1.046       .  S
N386        H390   1.046       .  S
C391        C392   1.416       .  A
C391        C396   1.417       .  A
C391        H398   1.083       .  S
C392        C393   1.420       .  A
C393        C394   1.422       .  A
C393        N400   1.437       .  S
C394        C395   1.410       .  A
C394        H399   1.084       .  S
C395        C396   1.419       .  A
C396        N397   1.437       .  S
N397        H401   1.045       .  S
N397        H402   1.043       .  S
N400        H403   1.046       .  S
N400        H404   1.046       .  S
C405        C406   1.412       .  A
C405        C410   1.417       .  A
C405        H412   1.083       .  S
C406        C407   1.423       .  A
C407        C408   1.422       .  A
C407        N414   1.437       .  S
C408        C409   1.407       .  A
C408        H413   1.084       .  S
C409        C410   1.420       .  A
C410        N411   1.431       .  S
N411        H415   1.042       .  S
N411        H416   1.044       .  S
N414        H417   1.046       .  S
N414        H418   1.046       .  S
C419        C420   1.396       .  A
C419        C424   1.396       .  A
C419        H426   1.084       .  S
C420        C421   1.418       .  A
C421        C422   1.403       .  A
C421        N428   1.439       .  S
C422        C423   1.399       .  A
C422        H427   1.084       .  S
C423        C424   1.419       .  A
C424        N425   1.432       .  S
N425        H429   1.045       .  S
N425        H430   1.046       .  S
N428        H431   1.046       .  S
N428        H432   1.046       .  S
C433        C434   1.408       .  A
C433        C438   1.402       .  A
C433        H440   1.081       .  S
C434        C435   1.406       .  A
C435        C436   1.395   1_565  A
C435        N442   1.437   1_565  S
C436        C437   1.411   1_545  A
C436        H441   1.083       .  S
C437        C438   1.409       .  A
C438        N439   1.437       .  S
N439        H443   1.046       .  S
N439        H444   1.046       .  S
N442        H445   1.045       .  S
N442        H446   1.045       .  S
C447        C448   1.401       .  A
C447        C452   1.396       .  A
C447        H454   1.084       .  S
C448        C449   1.406       .  A
C449        C450   1.401       .  A
C449        N456   1.437       .  S
C450        C451   1.402       .  A
C450        H455   1.084       .  S
C451        C452   1.404       .  A
C452        N453   1.433       .  S
N453        H457   1.045       .  S
N453        H458   1.046       .  S
N456        H459   1.046       .  S
N456        H460   1.046       .  S
C461        C462   1.403       .  A
C461        C466   1.393       .  A
C461        H468   1.085       .  S
C462        C463   1.405       .  A
C463        C464   1.400       .  A
C463        N470   1.438       .  S
C464        C465   1.401       .  A
C464        H469   1.084       .  S
C465        C466   1.404       .  A
C466        N467   1.439       .  S
N467        H471   1.046       .  S
N467        H472   1.045       .  S
N470        H473   1.045       .  S
N470        H474   1.046       .  S
C475        C476   1.396       .  A
C475        C480   1.395       .  A
C475        H482   1.084       .  S
C476        C477   1.422       .  A
C477        C478   1.405       .  A
C477        N484   1.438       .  S
C478        C479   1.399       .  A
C478        H483   1.084       .  S
C479        C480   1.412       .  A
C480        N481   1.433       .  S
N481        H485   1.046       .  S
N481        H486   1.046       .  S
N484        H487   1.042       .  S
N484        H488   1.045       .  S
C489        C490   1.401       .  A
C489        C494   1.403       .  A
C489        H496   1.084       .  S
C490        C491   1.418       .  A
C491        C492   1.385       .  A
C491        N498   1.432       .  S
C492        C493   1.393       .  A
C492        H497   1.085       .  S
C493        C494   1.419       .  A
C494        N495   1.439       .  S
N495        H499   1.046       .  S
N495        H500   1.042       .  S
N498        H501   1.041       .  S
N498        H502   1.042       .  S
C503        C504   1.392       .  A
C503        C508   1.397       .  A
C503        H510   1.084       .  S
C504        C505   1.413       .  A
C505        C506   1.404       .  A
C505        N512   1.438   1_545  S
C506        C507   1.398       .  A
C506        H511   1.083   1_545  S
C507        C508   1.416       .  A
C508        N509   1.432       .  S
N509        H513   1.045       .  S
N509        H514   1.045       .  S
N512        H515   1.046       .  S
N512        H516   1.046       .  S
C517        C518   1.406       .  A
C517        C522   1.403       .  A
C517        H524   1.083       .  S
C518        C519   1.400       .  A
C519        C520   1.396       .  A
C519        N526   1.437       .  S
C520        C521   1.407       .  A
C520        H525   1.084       .  S
C521        C522   1.406       .  A
C522        N523   1.437       .  S
N523        H527   1.046       .  S
N523        H528   1.046       .  S
N526        H529   1.046       .  S
N526        H530   1.045       .  S
C531        C532   1.394       .  A
C531        C536   1.403       .  A
C531        H538   1.084       .  S
C532        C533   1.414       .  A
C533        C534   1.400       .  A
C533        N540   1.440   1_545  S
C534        C535   1.396       .  A
C534        H539   1.083   1_545  S
C535        C536   1.420       .  A
C536        N537   1.439       .  S
N537        H541   1.045       .  S
N537        H542   1.044       .  S
N540        H543   1.045       .  S
N540        H544   1.046       .  S
C545        C546   1.400       .  A
C545        C550   1.410       .  A
C545        H552   1.083       .  S
C546        C547   1.407       .  A
C547        C548   1.395       .  A
C547        N554   1.433       .  S
C548        C549   1.400       .  A
C548        H553   1.084       .  S
C549        C550   1.419       .  A
C550        N551   1.438       .  S
N551        H555   1.046   1_545  S
N551        H556   1.045   1_554  S
N554        H557   1.046       .  S
N554        H558   1.045       .  S
C559        C560   1.407       .  A
C559        C564   1.398       .  A
C559        H566   1.083       .  S
C560        C561   1.401       .  A
C561        C562   1.405       .  A
C561        N568   1.436       .  S
C562        C563   1.411       .  A
C562        H567   1.084       .  S
C563        C564   1.409       .  A
C564        N565   1.438   1_655  S
N565        H569   1.046       .  S
N565        H570   1.044       .  S
N568        H571   1.046       .  S
N568        H572   1.046       .  S
C573        C574   1.415       .  A
C573        C578   1.422       .  A
C573        H580   1.083       .  S
C574        C575   1.420       .  A
C575        C576   1.425       .  A
C575        N582   1.437       .  S
C576        C577   1.413       .  A
C576        H581   1.081       .  S
C577        C578   1.422       .  A
C578        N579   1.431       .  S
N579        H583   1.041       .  S
N579        H584   1.045       .  S
N582        H585   1.046       .  S
N582        H586   1.046       .  S
C587        C588   1.404       .  A
C587        C592   1.393       .  A
C587        H594   1.084   1_655  S
C588        C589   1.401       .  A
C589        C590   1.396       .  A
C589        N596   1.432       .  S
C590        C591   1.410       .  A
C590        H595   1.084       .  S
C591        C592   1.407       .  A
C592        N593   1.438   1_655  S
N593        H597   1.046   1_455  S
N593        H598   1.044   1_455  S
N596        H599   1.046       .  S
N596        H600   1.045       .  S
C601        C602   1.409       .  A
C601        C606   1.427       .  A
C601        H608   1.083       .  S
C602        C603   1.427       .  A
C603        C604   1.418       .  A
C603        N610   1.437       .  S
C604        C605   1.409       .  A
C604        H609   1.084       .  S
C605        C606   1.423       .  A
C606        N607   1.437       .  S
N607        H611   1.046       .  S
N607        H612   1.045       .  S
N610        H613   1.039       .  S
N610        H614   1.046       .  S
C615        C616   1.412       .  A
C615        C620   1.395       .  A
C615        H622   1.084       .  S
C616        C617   1.413       .  A
C617        C618   1.405       .  A
C617        N624   1.438       .  S
C618        C619   1.406       .  A
C618        H623   1.084       .  S
C619        C620   1.409       .  A
C620        N621   1.439       .  S
N621        H625   1.046       .  S
N621        H626   1.044       .  S
N624        H627   1.045       .  S
N624        H628   1.046       .  S
C629        C630   1.393       .  A
C629        C634   1.395       .  A
C629        H636   1.085       .  S
C630        C631   1.419       .  A
C631        C632   1.396       .  A
C631        N638   1.440   1_655  S
C632        C633   1.397       .  A
C632        H637   1.084   1_655  S
C633        C634   1.427       .  A
C634        N635   1.439       .  S
N635        H639   1.046       .  S
N635        H640   1.037       .  S
N638        H641   1.042       .  S
N638        H642   1.046       .  S
C643        C644   1.406       .  A
C643        C648   1.390       .  A
C643        H650   1.085       .  S
C644        C645   1.405       .  A
C645        C646   1.407       .  A
C645        N652   1.436       .  S
C646        C647   1.408       .  A
C646        H651   1.084       .  S
C647        C648   1.408       .  A
C648        N649   1.438       .  S
N649        H653   1.046       .  S
N649        H654   1.044       .  S
N652        H655   1.046       .  S
N652        H656   1.046       .  S
C657        C658   1.404       .  A
C657        C662   1.395       .  A
C657        H664   1.084       .  S
C658        C659   1.404       .  A
C659        C660   1.408       .  A
C659        N666   1.437       .  S
C660        C661   1.409       .  A
C660        H665   1.084       .  S
C661        C662   1.407       .  A
C662        N663   1.438       .  S
N663        H667   1.046       .  S
N663        H668   1.046       .  S
N666        H669   1.045       .  S
N666        H670   1.046       .  S
C671        C672   1.408       .  A
C671        C676   1.404       .  A
C671        H678   1.084       .  S
C672        C673   1.410       .  A
C673        C674   1.387       .  A
C673        N680   1.441   1_565  S
C674        C675   1.409       .  A
C674        H679   1.085   1_565  S
C675        C676   1.407       .  A
C676        N677   1.437       .  S
N677        H681   1.046       .  S
N677        H682   1.046       .  S
N680        H683   1.042   1_545  S
N680        H684   1.046       .  S
C685        C686   1.394       .  A
C685        C690   1.396       .  A
C685        H692   1.084       .  S
C686        C687   1.420       .  A
C687        C688   1.400       .  A
C687        N694   1.439       .  S
C688        C689   1.401       .  A
C688        H693   1.084       .  S
C689        C690   1.418       .  A
C690        N691   1.434       .  S
N691        H695   1.046       .  S
N691        H696   1.046   1_455  S
N694        H697   1.042       .  S
N694        H698   1.045       .  S
C699        C700   1.405       .  A
C699        C704   1.400       .  A
C699        H706   1.083       .  S
C700        C701   1.417       .  A
C701        C702   1.399       .  A
C701        N708   1.433   1_565  S
C702        C703   1.397       .  A
C702        H707   1.084   1_565  S
C703        C704   1.412       .  A
C704        N705   1.440       .  S
N705        H709   1.045       .  S
N705        H710   1.046       .  S
N708        H711   1.045       .  S
N708        H712   1.046       .  S
C713        C714   1.407       .  A
C713        C718   1.404       .  A
C713        H720   1.084       .  S
C714        C715   1.402       .  A
C715        C716   1.390       .  A
C715        N722   1.439   1_455  S
C716        C717   1.416       .  A
C716        H721   1.083   1_455  S
C717        C718   1.410       .  A
C718        N719   1.437       .  S
N719        H723   1.046       .  S
N719        H724   1.045       .  S
N722        H725   1.044       .  S
N722        H726   1.046       .  S
C727        C728   1.409       .  A
C727        C732   1.405       .  A
C727        H734   1.084       .  S
C728        C729   1.405       .  A
C729        C730   1.390       .  A
C729        N736   1.438       .  S
C730        C731   1.410       .  A
C730        H735   1.083       .  S
C731        C732   1.406       .  A
C732        N733   1.437       .  S
N733        H737   1.046       .  S
N733        H738   1.045       .  S
N736        H739   1.044       .  S
N736        H740   1.045       .  S
C741        C742   1.399       .  A
C741        C746   1.399       .  A
C741        H748   1.084       .  S
C742        C743   1.415       .  A
C743        C744   1.393       .  A
C743        N750   1.438       .  S
C744        C745   1.400       .  A
C744        H749   1.083       .  S
C745        C746   1.416       .  A
C746        N747   1.433       .  S
N747        H751   1.046       .  S
N747        H752   1.045       .  S
N750        H753   1.045       .  S
N750        H754   1.046       .  S
C755        C756   1.392       .  A
C755        C760   1.396       .  A
C755        H762   1.084       .  S
C756        C757   1.409       .  A
C757        C758   1.400       .  A
C757        N764   1.439       .  S
C758        C759   1.404       .  A
C758        H763   1.083       .  S
C759        C760   1.424       .  A
C760        N761   1.439   1_455  S
N761        H765   1.046       .  S
N761        H766   1.043       .  S
N764        H767   1.045       .  S
N764        H768   1.045       .  S
C769        C770   1.401       .  A
C769        C774   1.400       .  A
C769        H776   1.084       .  S
C770        C771   1.428       .  A
C771        C772   1.398       .  A
C771        N778   1.439   1_455  S
C772        C773   1.390       .  A
C772        H777   1.084       .  S
C773        C774   1.419       .  A
C774        N775   1.439       .  S
N775        H779   1.046       .  S
N775        H780   1.043       .  S
N778        H781   1.044       .  S
N778        H782   1.046       .  S
C783        C784   1.413       .  A
C783        C788   1.423       .  A
C783        H790   1.084       .  S
C784        C785   1.426       .  A
C785        C786   1.421       .  A
C785        N792   1.438       .  S
C786        C787   1.412       .  A
C786        H791   1.080       .  S
C787        C788   1.420       .  A
C788        N789   1.436       .  S
N789        H793   1.045       .  S
N789        H794   1.045       .  S
N792        H795   1.041       .  S
N792        H796   1.046       .  S
C797        C798   1.418       .  A
C797        C802   1.433       .  A
C797        H804   1.083       .  S
C798        C799   1.422       .  A
C799        C800   1.406       .  A
C799        N806   1.416       .  S
C800        C801   1.398       .  A
C800        H805   1.084       .  S
C801        C802   1.420       .  A
C802        N803   1.436       .  S
N803        H807   1.046       .  S
N803        H808   1.045       .  S
N806        H809   1.045       .  S
N806        H810   1.042       .  S
C811        C812   1.407       .  A
C811        C816   1.421       .  A
C811        H818   1.084       .  S
C812        C813   1.423       .  A
C813        C814   1.419       .  A
C813        N820   1.438       .  S
C814        C815   1.411       .  A
C814        H819   1.084       .  S
C815        C816   1.429       .  A
C816        N817   1.438       .  S
N817        H821   1.046       .  S
N817        H822   1.042       .  S
N820        H823   1.043       .  S
N820        H824   1.045       .  S
C825        C826   1.411       .  A
C825        C830   1.420       .  A
C825        H832   1.083       .  S
C826        C827   1.429       .  A
C827        C828   1.422       .  A
C827        N834   1.431       .  S
C828        C829   1.412       .  A
C828        H833   1.081       .  S
C829        C830   1.428       .  A
C830        N831   1.429       .  S
N831        H835   1.041       .  S
N831        H836   1.043       .  S
N834        H837   1.045       .  S
N834        H838   1.045       .  S
C839        C840   1.408       .  A
C839        C844   1.417       .  A
C839        H846   1.084       .  S
C840        C841   1.423       .  A
C841        C842   1.421       .  A
C841        N848   1.438       .  S
C842        C843   1.413       .  A
C842        H847   1.084       .  S
C843        C844   1.426       .  A
C844        N845   1.436       .  S
N845        H849   1.045       .  S
N845        H850   1.042       .  S
N848        H851   1.043       .  S
N848        H852   1.045       .  S
C853        C854   1.413       .  A
C853        C858   1.425       .  A
C853        H860   1.084       .  S
C854        C855   1.416       .  A
C855        C856   1.414       .  A
C855        N862   1.439       .  S
C856        C857   1.409       .  A
C856        H861   1.058       .  S
C857        C858   1.430       .  A
C858        N859   1.436       .  S
N859        H863   1.045       .  S
N859        H864   1.042       .  S
N862        H865   1.042       .  S
N862        H866   1.046       .  S
