geometry optimzed in LAMMPS
_audit_creation_date              2020-11-30 
_audit_creation_method            'lammps2cif' 
_symmetry_space_group_name_H-M    'P1' 
_symmetry_Int_Tables_number       1 
_symmetry_cell_setting            triclinic 
loop_ 
_symmetry_equiv_pos_as_xyz 
  x,y,z 
_cell_length_a                    46.16532086 
_cell_length_b                    49.33378113812599 
_cell_length_c                    32.90980587409647 
_cell_angle_alpha                 90.00557153523562 
_cell_angle_beta                  89.99888705207944 
_cell_angle_gamma                 114.3717287509268 
loop_ 
_atom_site_label 
_atom_site_type_symbol 
_atom_site_fract_x 
_atom_site_fract_y 
_atom_site_fract_z 
_atom_site_charge 
C1          C  0.33092550  0.67358711  0.20943025     0.47400
H2          H  0.33036810  0.67339327  0.17566045    -0.01600
C3          C  0.33237347  0.67389370  0.28867128     0.47500
H4          H  0.33307120  0.67401644  0.32243237    -0.01600
C5          C  0.35024530  0.65731047  0.22747389    -0.15300
C6          C  0.34620424  0.70519730  0.22780252    -0.15000
C7          C  0.29761095  0.65846863  0.22919255    -0.15400
C8          C  0.35101527  0.65741911  0.26916527    -0.15400
C9          C  0.34687636  0.70538802  0.26955310    -0.14900
C10         C  0.29834783  0.65852488  0.27096301    -0.15300
C11         C  0.18332511  0.39407010  0.72623937     0.04300
C12         C  0.18386371  0.39408339  0.76904348     0.04200
C13         C  0.21040401  0.39397762  0.78941499    -0.16300
C14         C  0.23678731  0.39492509  0.76753397     0.04300
C15         C  0.23604302  0.39442915  0.72477737     0.04200
C16         C  0.20905417  0.39343954  0.70439435    -0.16300
H17         H  0.20903119  0.39439221  0.67145131     0.06300
H18         H  0.21143311  0.39527673  0.82233705     0.06300
C19         C  0.16412024  0.76710721  0.77410230     0.04300
C20         C  0.16299263  0.76682673  0.73135492     0.04200
C21         C  0.18546208  0.79027888  0.70922444    -0.16300
C22         C  0.20998910  0.81342483  0.72918572     0.04300
C23         C  0.21158721  0.81338143  0.77189760     0.04200
C24         C  0.18826643  0.79060212  0.79415503    -0.16300
H25         H  0.18992805  0.79030380  0.82703146     0.06300
H26         H  0.18485149  0.78969225  0.67625969     0.06300
C27         C  0.76628790  0.58159225  0.22937233     0.04300
C28         C  0.76719248  0.58232361  0.27213469     0.04200
C29         C  0.79515023  0.58578767  0.29242664    -0.16300
C30         C  0.82185647  0.58752396  0.27051735     0.04300
C31         C  0.82094816  0.58704331  0.22773337     0.04200
C32         C  0.79338485  0.58465101  0.20748508    -0.16300
H33         H  0.79234515  0.58319959  0.17456435     0.06300
H34         H  0.79548476  0.58529658  0.32538546     0.06300
O35         O  0.05508287  0.51681025  0.08459425    -0.78900
O36         O  0.93181152  0.44397880  0.97518634    -0.63600
O37         O  0.01487840  0.47938342  0.02365443    -1.10200
C38         C  0.03533103  0.55666927  0.93120820     1.08000
O39         O  0.94355741  0.46276558  0.91268544    -0.76800
O40         O  0.00721845  0.47532123  0.91188450    -0.64400
Ni41       Ni  0.01681473  0.48044001  0.08207541     1.34900
C42         C  0.03474333  0.48246065  0.92687073     0.86700
O43         O  0.96297793  0.42476988  0.02703292    -0.77300
O44         O  0.98027865  0.44300975  0.08868959    -0.87600
C45         C  0.92445830  0.44502858  0.93823681     0.86300
O46         O  0.99145226  0.50247258  0.08494450    -0.65800
O47         O  0.02012325  0.53507106  0.90761971    -0.81700
C48         C  0.96417428  0.49524660  0.06927781     0.87100
C49         C  0.96485711  0.42158665  0.06494349     1.08700
H50         H  0.97268675  0.50953447  0.98304114     0.40500
O51         O  0.98505887  0.49917770  0.97312455    -1.07800
O52         O  0.04655351  0.50222064  0.95446397    -0.64400
Ni53       Ni  0.02691015  0.51680744  0.99651162     1.26300
O54         O  0.95285086  0.47552243  0.04170049    -0.64700
O55         O  0.03718592  0.55359858  0.96915804    -0.76900
C56         C  0.07470756  0.53429589  0.05929934     0.86500
O57         O  0.06829367  0.53442273  0.02171493    -0.64100
Ni58       Ni  0.98279694  0.49828356  0.91473580     1.27400
Ni59       Ni  0.97314329  0.46160701  0.99998734     1.26100
H60         H  0.02729634  0.46903945  0.01403966     0.41000
O61         O  0.94407269  0.46672222  0.58893693    -0.78900
O62         O  0.06832636  0.53563750  0.47851654    -0.63600
O63         O  0.98517881  0.50237609  0.52742619    -1.10200
C64         C  0.96209826  0.42285868  0.43878703     1.08000
O65         O  0.05745739  0.51305568  0.41817927    -0.76800
O66         O  0.99492677  0.50432654  0.41648565    -0.64400
Ni67       Ni  0.98299779  0.50253880  0.58571086     1.34900
C68         C  0.96749533  0.49873475  0.43075576     0.86700
O69         O  0.03743075  0.55640274  0.52883046    -0.77300
O70         O  0.02014725  0.53967211  0.59115559    -0.87600
C71         C  0.07613342  0.53252030  0.44231835     0.86300
O72         O  0.00760497  0.47984857  0.59026045    -0.65800
O73         O  0.97780137  0.44387208  0.41466585    -0.85100
C74         C  0.03506858  0.48667715  0.57534717     0.87100
C75         C  0.03568186  0.56048168  0.56655491     1.08700
H76         H  0.02610192  0.46976975  0.49054480     0.40500
O77         O  0.01433870  0.48023848  0.47930670    -1.07800
O78         O  0.95423288  0.47922683  0.45827085    -0.64400
Ni79       Ni  0.97218878  0.46437427  0.50199266     1.26300
O80         O  0.04675993  0.50578564  0.54705808    -0.64700
O81         O  0.96069082  0.42671251  0.47657789    -0.76900
C82         C  0.92406878  0.44962440  0.56362406     0.86500
O83         O  0.93056335  0.44882855  0.52623534    -0.64100
Ni84       Ni  0.01680667  0.47923374  0.42101962     1.27400
Ni85       Ni  0.02689784  0.51882783  0.50377213     1.26100
H86         H  0.97313380  0.51296248  0.51704738     0.41000
C87         C  0.83200398  0.21772554  0.23326196     0.04300
C88         C  0.83384442  0.21660712  0.27586139     0.04200
C89         C  0.81047886  0.19336305  0.29734312    -0.16300
C90         C  0.78481733  0.17167915  0.27682116     0.04300
C91         C  0.78285562  0.17300019  0.23422225     0.04200
C92         C  0.80669115  0.19576113  0.21267881    -0.16300
H93         H  0.80485116  0.19707091  0.17992302     0.06300
H94         H  0.81152851  0.19287908  0.33026151     0.06300
C95         C  0.40781384  0.16594882  0.26473856     0.04300
C96         C  0.40392998  0.16449566  0.22231841     0.04200
C97         C  0.40333061  0.18888791  0.20126565    -0.16300
C98         C  0.40718553  0.21489487  0.22214191     0.04300
C99         C  0.41088565  0.21617678  0.26469136     0.04200
C100        C  0.41087116  0.19157915  0.28573415    -0.16300
H101        H  0.41447989  0.19280113  0.31839205     0.06300
H102        H  0.40130023  0.18811510  0.16839750     0.06300
C103        C  0.60847118  0.82239232  0.76515253     0.04300
C104        C  0.60595083  0.82142082  0.72247875     0.04200
C105        C  0.60548188  0.79654646  0.70151468    -0.16300
C106        C  0.60562273  0.77198984  0.72280954     0.04300
C107        C  0.60734503  0.77273458  0.76558587     0.04200
C108        C  0.60971930  0.79830850  0.78633778    -0.16300
H109        H  0.61022248  0.79862415  0.81931041     0.06300
H110        H  0.60281114  0.79545280  0.66872118     0.06300
O111        O  0.48047762  0.93664033  0.41430080    -0.78900
O112        O  0.53585510  0.05560907  0.52427336    -0.63600
O113        O  0.51097287  0.97764608  0.47736466    -1.10200
C114        C  0.42000445  0.95094734  0.55728407     1.08000
O115        O  0.51436171  0.04149255  0.58557132    -0.76800
O116        O  0.50533470  0.98302190  0.58833882    -0.64400
Ni117      Ni  0.51526844  0.97533308  0.41940189     1.34900
C118        C  0.50100430  0.95778131  0.57386033     0.86700
O119        O  0.56545729  0.03079194  0.47804975    -0.77300
O120        O  0.55226141  0.01262420  0.41548872    -0.87600
C121        C  0.53255971  0.06121691  0.56128800     0.86300
O122        O  0.48748239  0.99423057  0.40985002    -0.65800
O123        O  0.44040005  0.96667519  0.58327487    -0.85100
C124        C  0.49081179  0.01934461  0.42368728     0.87100
C125        C  0.57218832  0.02936350  0.44108111     1.08700
H126        H  0.46946045  0.01145565  0.51011137     0.40500
O127        O  0.48165126  0.00161708  0.52204566    -1.07800
O128        O  0.48259638  0.94588723  0.54387772    -0.64400
Ni129      Ni  0.46843643  0.96271013  0.49860377     1.26300
O130        O  0.50836417  0.03199924  0.45410921    -0.64700
O131        O  0.42661846  0.94964872  0.52020807    -0.76900
C132        C  0.46015604  0.91785928  0.43762371     0.86500
O133        O  0.45506971  0.92414514  0.47361149    -0.64100
Ni134      Ni  0.47845529  0.00330107  0.58016552     1.27400
Ni135      Ni  0.52368216  0.01686672  0.50001938     1.26100
H136        H  0.52306050  0.96800350  0.49021918     0.41000
O137        O  0.46580548  0.51347824  0.41382172    -0.78900
O138        O  0.52975142  0.44563502  0.52444546    -0.63600
O139        O  0.47650263  0.47963532  0.47669444    -1.10200
C140        C  0.53063263  0.56195091  0.55884321     1.08000
O141        O  0.54022057  0.46913897  0.58412495    -0.76800
O142        O  0.48814837  0.48210835  0.58788640    -0.64400
Ni143      Ni  0.47244176  0.47742317  0.41853513     1.34900
C144        C  0.46606456  0.48837722  0.57374709     0.86700
O145        O  0.47867375  0.42449502  0.47768953    -0.77300
O146        O  0.47596432  0.43978273  0.41466888    -0.87600
C147        C  0.54077066  0.44910765  0.56032342     0.86300
O148        O  0.51702479  0.49939463  0.41196975    -0.65800
O149        O  0.52813516  0.54176406  0.58428664    -0.85100
C150        C  0.53839268  0.49231746  0.42652875     0.87100
C151        C  0.47283025  0.41945119  0.44023981     1.08700
H152        H  0.54775606  0.51104342  0.50943434     0.40500
O153        O  0.52697046  0.50169327  0.52185298    -1.07800
O154        O  0.47006966  0.50672771  0.54464831    -0.64400
Ni155      Ni  0.49964491  0.51842272  0.49916588     1.26300
O156        O  0.53321198  0.47336802  0.45501043    -0.64700
O157        O  0.52388260  0.55668958  0.52161920    -0.76900
C158        C  0.46358357  0.53260094  0.43801313     0.86500
O159        O  0.47257323  0.53490545  0.47484939    -0.64100
Ni160      Ni  0.53245124  0.50457176  0.57984352     1.27400
Ni161      Ni  0.50332471  0.46264886  0.49996949     1.26100
H162        H  0.45550562  0.47024790  0.48839587     0.41000
O163        O  0.52545981  0.04136666  0.91268438    -0.78900
O164        O  0.46156084  0.92255814  0.02073661    -0.63600
O165        O  0.48764241  0.00029673  0.97291628    -1.10200
C166        C  0.57071348  0.03124060  0.06569376     1.08000
O167        O  0.48080419  0.93567348  0.08328130    -0.76800
O168        O  0.48367043  0.99212707  0.08478759    -0.64400
Ni169      Ni  0.48873699  0.00356806  0.91460265     1.34900
C170        C  0.48711366  0.01709656  0.07026261     0.86700
O171        O  0.43498058  0.94620168  0.96863419    -0.77300
O172        O  0.45089451  0.96739819  0.90779802    -0.87600
C173        C  0.46372059  0.91636328  0.05779414     0.86300
O174        O  0.51556133  0.98317372  0.90855722    -0.65800
O175        O  0.54907151  0.01396204  0.08906029    -0.85100
C176        C  0.51221360  0.95857089  0.92420195     0.87100
C177        C  0.43031851  0.94892476  0.93125660     1.08700
H178        H  0.52890596  0.96923735  0.01308114     0.40500
O179        O  0.51500878  0.97784336  0.02312267    -1.07800
O180        O  0.50735481  0.03071557  0.04268337    -0.64400
Ni181      Ni  0.52751841  0.01695739  0.00041737     1.26300
O182        O  0.49381798  0.94646124  0.95403773    -0.64700
O183        O  0.56718115  0.03219227  0.02775157    -0.76900
C184        C  0.54031005  0.06126298  0.93873861     0.86500
O185        O  0.53978233  0.05563067  0.97642053    -0.64100
Ni186      Ni  0.51413259  0.97546989  0.08155688     1.27400
Ni187      Ni  0.47465904  0.96123180  0.99601552     1.26100
H188        H  0.47365211  0.00895908  0.98287655     0.41000
O189        O  0.54237224  0.47360656  0.91127374    -0.78900
O190        O  0.47071801  0.53631208  0.01835766    -0.63600
O191        O  0.52718432  0.50521448  0.97270804    -1.10200
C192        C  0.47433914  0.42253556  0.05552085     1.08000
O193        O  0.46598630  0.51660203  0.08028151    -0.76800
O194        O  0.51662875  0.50166699  0.08475370    -0.64400
Ni195      Ni  0.53186167  0.50750597  0.91456795     1.34900
C196        C  0.53849799  0.49522551  0.07034507     0.86700
O197        O  0.52178844  0.55918113  0.97133803    -0.77300
O198        O  0.52452486  0.54319932  0.90893966    -0.87600
C199        C  0.46246556  0.53469917  0.05537234     0.86300
O200        O  0.48792275  0.48276746  0.90807099    -0.65800
O201        O  0.47517244  0.44239975  0.08067929    -0.85100
C202        C  0.46545161  0.48868870  0.92161688     0.87100
C203        C  0.52726225  0.56382464  0.93374011     1.08700
H204        H  0.45615071  0.47211504  0.00637157     0.40500
O205        O  0.47702307  0.48220794  0.01817118    -1.07800
O206        O  0.53457967  0.47781066  0.04024830    -0.64400
Ni207      Ni  0.50479446  0.46611578  0.99533479     1.26300
O208        O  0.46912727  0.50772532  0.94965825    -0.64700
O209        O  0.48150101  0.42782646  0.01834430    -0.76900
C210        C  0.54349081  0.45389905  0.93522918     0.86500
O211        O  0.53217417  0.45008610  0.97098876    -0.64100
Ni212      Ni  0.47217303  0.48023407  0.07624150     1.27400
Ni213      Ni  0.49885596  0.52092293  0.99483316     1.26100
H214        H  0.54797064  0.51525813  0.98491753     0.41000
C215        C  0.66782096  0.30454796  0.71090716     0.47400
H216        H  0.66780016  0.30429707  0.67713315    -0.01600
C217        C  0.66789902  0.30545563  0.79017023     0.47500
H218        H  0.66792600  0.30593759  0.82394286    -0.01600
C219        C  0.64935307  0.32155087  0.72912741    -0.15300
C220        C  0.65270802  0.27320164  0.73029849    -0.15000
C221        C  0.70143797  0.31986040  0.72966058    -0.15400
C222        C  0.64943325  0.32206783  0.77080192    -0.15400
C223        C  0.65292844  0.27373592  0.77205211    -0.14900
C224        C  0.70142395  0.32027297  0.77139421    -0.15300
C225        C  0.58392403  0.40266327  0.88195242     0.19000
C226        C  0.61691326  0.41388067  0.87580248    -0.10100
C227        C  0.63011354  0.39740467  0.85364126    -0.11000
C228        C  0.61047210  0.36954205  0.83732900     0.20600
C229        C  0.57750105  0.35837142  0.84341844    -0.13000
C230        C  0.56431006  0.37483141  0.86557419    -0.11300
C231        C  0.62403643  0.35250233  0.81427488     0.01500
C232        C  0.63535731  0.33837606  0.79475927    -0.31300
C233        C  0.57009329  0.41999395  0.90389460     0.02900
C234        C  0.55810314  0.43494630  0.92013559    -0.33000
H235        H  0.63241973  0.43541151  0.88797537     0.14000
H236        H  0.65561717  0.40642974  0.84915294     0.13800
H237        H  0.56196257  0.33695497  0.83095471     0.13600
H238        H  0.53878210  0.36589873  0.86976787     0.12700
C239        C  0.61419735  0.19731326  0.84147162     0.19000
C240        C  0.62758718  0.19391314  0.87843711    -0.10100
C241        C  0.61370462  0.16720346  0.90057604    -0.11000
C242        C  0.58625623  0.14358666  0.88602123     0.20600
C243        C  0.57285791  0.14711082  0.84919173    -0.13000
C244        C  0.58671056  0.17374285  0.82710462    -0.11300
C245        C  0.57184972  0.11561016  0.90819329     0.01500
C246        C  0.55837058  0.09133968  0.92407074    -0.31300
C247        C  0.62853132  0.22468815  0.81801023     0.02900
C248        C  0.63979291  0.24708045  0.79737724    -0.33000
H249        H  0.64880404  0.21184315  0.89007585     0.14000
H250        H  0.62444020  0.16494892  0.92891574     0.13800
H251        H  0.55170769  0.12917608  0.83740708     0.13600
H252        H  0.57601359  0.17590110  0.79867855     0.12700
C253        C  0.60851471  0.36627874  0.66028262     0.19000
C254        C  0.58072727  0.36830901  0.67409577    -0.10100
C255        C  0.56683254  0.38394649  0.65147434    -0.11000
C256        C  0.58053252  0.39776082  0.61474094     0.20600
C257        C  0.60837093  0.39578561  0.60093388    -0.13000
C258        C  0.62227213  0.38011704  0.62357041    -0.11300
C259        C  0.56645663  0.41458572  0.59209603     0.01500
C260        C  0.55459002  0.42955946  0.57562082    -0.31300
C261        C  0.62289769  0.35018998  0.68388310     0.02900
C262        C  0.63481941  0.33693134  0.70413157    -0.33000
H263        H  0.56983318  0.35786664  0.70242629     0.14000
H264        H  0.54546392  0.38538219  0.66275470     0.13800
H265        H  0.61940938  0.40645564  0.57278833     0.13600
H266        H  0.64378490  0.37886674  0.61249301     0.12700
C267        C  0.61003275  0.19598566  0.66246150     0.19000
C268        C  0.62713343  0.17976869  0.64924018    -0.10100
C269        C  0.61206676  0.15344187  0.62658741    -0.11000
C270        C  0.57964244  0.14287304  0.61671488     0.20600
C271        C  0.56254545  0.15913659  0.62984803    -0.13000
C272        C  0.57761823  0.18547228  0.65250754    -0.11300
C273        C  0.56382674  0.11502521  0.59428578     0.01500
C274        C  0.55020602  0.09106421  0.57743542    -0.31300
C275        C  0.62560943  0.22319750  0.68624962     0.02900
C276        C  0.63826670  0.24589122  0.70618178    -0.33000
H277        H  0.65213406  0.18740912  0.65656714     0.14000
H278        H  0.62571032  0.14122704  0.61696813     0.13800
H279        H  0.53748708  0.15137769  0.62278115     0.13600
H280        H  0.56392664  0.19757739  0.66239444     0.12700
C281        C  0.56130254  0.64312555  0.61232552     0.19000
C282        C  0.55135398  0.64269083  0.65262051    -0.10100
C283        C  0.56235174  0.66892041  0.67536641    -0.11000
C284        C  0.58341293  0.69570382  0.65794330     0.20600
C285        C  0.59344449  0.69618140  0.61764698    -0.13000
C286        C  0.58243757  0.66989576  0.59486225    -0.11300
C287        C  0.59371897  0.72277066  0.68106202     0.01500
C288        C  0.60039965  0.74527181  0.70040533    -0.31300
C289        C  0.55024715  0.61584719  0.58958354     0.02900
C290        C  0.54093773  0.59177391  0.57361902    -0.33000
H291        H  0.53511102  0.62207496  0.66643929     0.14000
H292        H  0.55432407  0.66835203  0.70642290     0.13800
H293        H  0.60961038  0.71683523  0.60385048     0.13600
H294        H  0.59036856  0.67043550  0.56376968     0.12700
C295        C  0.54650076  0.91167395  0.62803689     0.19000
C296        C  0.53220828  0.89342566  0.66141745    -0.10100
C297        C  0.54696681  0.87692887  0.67993759    -0.11000
C298        C  0.57611248  0.87852688  0.66520472     0.20600
C299        C  0.59059768  0.89697025  0.63203527    -0.13000
C300        C  0.57582867  0.91352920  0.61350859    -0.11300
C301        C  0.59034905  0.86045311  0.68360620     0.01500
C302        C  0.59937426  0.84360751  0.70042979    -0.31300
C303        C  0.53082364  0.92815207  0.60856693     0.02900
C304        C  0.51721570  0.94164553  0.59262521    -0.33000
H305        H  0.50956517  0.89179794  0.67294856     0.14000
H306        H  0.53551566  0.86271845  0.70552544     0.13800
H307        H  0.61309369  0.89834768  0.62031929     0.13600
H308        H  0.58713036  0.92757489  0.58773284     0.12700
C309        C  0.55833119  0.64452396  0.87839758     0.19000
C310        C  0.56643148  0.67199257  0.89776603    -0.10100
C311        C  0.57894485  0.69837439  0.87514309    -0.11000
C312        C  0.58348098  0.69736205  0.83311870     0.20600
C313        C  0.57540393  0.66990105  0.81384015    -0.13000
C314        C  0.56290156  0.64357347  0.83641266    -0.11300
C315        C  0.59502717  0.72427187  0.80939205     0.01500
C316        C  0.60237593  0.74645645  0.78906370    -0.31300
C317        C  0.54591630  0.61722903  0.90131783     0.02900
C318        C  0.53654839  0.59331945  0.91787798    -0.33000
H319        H  0.56306188  0.67300298  0.93021936     0.14000
H320        H  0.58489239  0.71948909  0.89032213     0.13800
H321        H  0.57859536  0.66883748  0.78135055     0.13600
H322        H  0.55678477  0.62246937  0.82112819     0.12700
C323        C  0.56055882  0.91534336  0.87084927     0.19000
C324        C  0.57032936  0.92217610  0.83041152    -0.10100
C325        C  0.58407640  0.90568486  0.80978161    -0.11000
C326        C  0.58817943  0.88241008  0.82961273     0.20600
C327        C  0.57902397  0.87597591  0.87030300    -0.13000
C328        C  0.56524650  0.89244843  0.89091971    -0.11300
C329        C  0.59925738  0.86357808  0.80731394     0.01500
C330        C  0.60535741  0.84586400  0.78810866    -0.31300
C331        C  0.54432040  0.93084070  0.89101539     0.02900
C332        C  0.52978773  0.94341490  0.90678973    -0.33000
H333        H  0.56666828  0.93977182  0.81460332     0.14000
H334        H  0.59076749  0.91057994  0.77816897     0.13800
H335        H  0.58181929  0.85779957  0.88573139     0.13600
H336        H  0.55763662  0.88693301  0.92213592     0.12700
C337        C  0.44503796  0.34115492  0.10827939     0.19000
C338        C  0.45661975  0.31969525  0.09931219    -0.10100
C339        C  0.44627131  0.29339315  0.12193516    -0.11000
C340        C  0.42437405  0.28851481  0.15359483     0.20600
C341        C  0.41250759  0.30980271  0.16222838    -0.13000
C342        C  0.42282502  0.33607685  0.13959244    -0.11300
C343        C  0.41538680  0.26232990  0.17832635     0.01500
C344        C  0.41023425  0.24065069  0.19888534    -0.31300
C345        C  0.45643144  0.36879676  0.08634979     0.02900
C346        C  0.46518445  0.39289908  0.07056724    -0.33000
H347        H  0.47386634  0.32344336  0.07524849     0.14000
H348        H  0.45568267  0.27708383  0.11517211     0.13800
H349        H  0.39569421  0.30629366  0.18677164     0.13600
H350        H  0.41380278  0.35259268  0.14682181     0.12700
C351        C  0.44728359  0.34013674  0.38377245     0.19000
C352        C  0.43293073  0.31163751  0.40081495    -0.10100
C353        C  0.42466177  0.28655684  0.37593817    -0.11000
C354        C  0.43067991  0.29001045  0.33406348     0.20600
C355        C  0.44509067  0.31849797  0.31715796    -0.13000
C356        C  0.45335373  0.34350577  0.34196662    -0.11300
C357        C  0.42255371  0.26441010  0.30842193     0.01500
C358        C  0.41663631  0.24281664  0.28742917    -0.31300
C359        C  0.45565610  0.36619442  0.40855441     0.02900
C360        C  0.46335446  0.38981436  0.42530365    -0.33000
H361        H  0.42813435  0.30883565  0.43312924     0.14000
H362        H  0.41362363  0.26455478  0.38927193     0.13800
H363        H  0.44993008  0.32136092  0.28485018     0.13600
H364        H  0.46443337  0.36548169  0.32855422     0.12700
C365        C  0.44825390  0.06521300  0.36436648     0.19000
C366        C  0.45043551  0.06776912  0.32197762    -0.10100
C367        C  0.43925411  0.08650003  0.30193787    -0.11000
C368        C  0.42589614  0.10263052  0.32431326     0.20600
C369        C  0.42313985  0.09960932  0.36657957    -0.13000
C370        C  0.43428985  0.08087217  0.38659998    -0.11300
C371        C  0.41685658  0.12363748  0.30416623     0.01500
C372        C  0.41148549  0.14244149  0.28675063    -0.31300
C373        C  0.46194985  0.04791348  0.38532757     0.02900
C374        C  0.47472518  0.03461035  0.40316731    -0.33000
H375        H  0.46135093  0.05581542  0.30459613     0.14000
H376        H  0.44162115  0.08889527  0.26921638     0.13800
H377        H  0.41301325  0.11218506  0.38406862     0.13600
H378        H  0.43266704  0.07909206  0.41941300     0.12700
C379        C  0.41601766  0.09921611  0.15941512     0.19000
C380        C  0.40960409  0.07099780  0.17546904    -0.10100
C381        C  0.42108598  0.05227553  0.15573709    -0.11000
C382        C  0.43904335  0.06182415  0.12004872     0.20600
C383        C  0.44476597  0.08973764  0.10362283    -0.13000
C384        C  0.43329045  0.10838211  0.12326173    -0.11300
C385        C  0.45364971  0.04415686  0.10171283     0.01500
C386        C  0.46816227  0.03120468  0.08684781    -0.31300
C387        C  0.40742301  0.11993510  0.18139024     0.02900
C388        C  0.40392618  0.13949317  0.19968822    -0.33000
H389        H  0.39654134  0.06384401  0.20367307     0.14000
H390        H  0.41672564  0.03078841  0.16882956     0.13800
H391        H  0.45882225  0.09740727  0.07623464     0.13600
H392        H  0.43864027  0.13027841  0.11086514     0.12700
C393        C  0.65793824  0.07864041  0.38983568     0.19000
C394        C  0.68094619  0.10466121  0.40673851    -0.10100
C395        C  0.70797144  0.12201205  0.38428162    -0.11000
C396        C  0.71204280  0.11337462  0.34488560     0.20600
C397        C  0.68942521  0.08696443  0.32837718    -0.13000
C398        C  0.66242068  0.06960772  0.35083946    -0.11300
C399        C  0.73844189  0.13247156  0.32063623     0.01500
C400        C  0.75982316  0.14965137  0.30032060    -0.31300
C401        C  0.62890786  0.06203409  0.41137131     0.02900
C402        C  0.60346102  0.04773645  0.42673552    -0.33000
H403        H  0.67765290  0.11185577  0.43682358     0.14000
H404        H  0.72530533  0.14246339  0.39724573     0.13800
H405        H  0.69231644  0.08016222  0.29788706     0.13600
H406        H  0.64471013  0.04953855  0.33747335     0.12700
C407        C  0.65251905  0.08392906  0.12290445     0.19000
C408        C  0.67468759  0.11088546  0.10718919    -0.10100
C409        C  0.70149206  0.12819814  0.13002272    -0.11000
C410        C  0.70612598  0.11854580  0.16854746     0.20600
C411        C  0.68407711  0.09148738  0.18407517    -0.13000
C412        C  0.65731445  0.07418787  0.16125771    -0.11300
C413        C  0.73320163  0.13663857  0.19242907     0.01500
C414        C  0.75580492  0.15251668  0.21208389    -0.31300
C415        C  0.62443232  0.06644343  0.10032287     0.02900
C416        C  0.60013200  0.05090156  0.08345186    -0.33000
H417        H  0.67112237  0.11858831  0.07755930     0.14000
H418        H  0.71844008  0.14914632  0.11782548     0.13800
H419        H  0.68746181  0.08389885  0.21386592     0.13600
H420        H  0.64023860  0.05336782  0.17363329     0.12700
C421        C  0.91898250  0.34266645  0.38279798     0.19000
C422        C  0.90869042  0.31533757  0.40311611    -0.10100
C423        C  0.89487973  0.28874671  0.38124511    -0.11000
C424        C  0.89143758  0.28945468  0.33902086     0.20600
C425        C  0.90226286  0.31677082  0.31862660    -0.13000
C426        C  0.91604315  0.34333472  0.34047912    -0.11300
C427        C  0.87435366  0.26240637  0.31702516     0.01500
C428        C  0.85726865  0.24075265  0.29832052    -0.31300
C429        C  0.93256648  0.37008850  0.40515035     0.02900
C430        C  0.94503215  0.39380210  0.42195464    -0.33000
H431        H  0.91096485  0.31460228  0.43581740     0.14000
H432        H  0.88631695  0.26770920  0.39729449     0.13800
H433        H  0.89944570  0.31752519  0.28600580     0.13600
H434        H  0.92402905  0.36436559  0.32447867     0.12700
C435        C  0.83855549  0.39786851  0.61747429     0.19000
C436        C  0.80934650  0.39788311  0.60556813    -0.10100
C437        C  0.78147628  0.38151522  0.62762666    -0.11000
C438        C  0.78245362  0.36494933  0.66190479     0.20600
C439        C  0.81165230  0.36496825  0.67381094    -0.13000
C440        C  0.83949063  0.38130626  0.65176270    -0.11300
C441        C  0.75373561  0.34831067  0.68512950     0.01500
C442        C  0.72993846  0.33488849  0.70508031    -0.31300
C443        C  0.86765561  0.41525108  0.59530505     0.02900
C444        C  0.89281241  0.43032962  0.57894688    -0.33000
H445        H  0.80812142  0.41063446  0.57934124     0.14000
H446        H  0.75919326  0.38187842  0.61802699     0.13800
H447        H  0.81293907  0.35243632  0.70025934     0.13600
H448        H  0.86180134  0.38111916  0.66159435     0.12700
C449        C  0.88697054  0.29059554  0.16764710     0.19000
C450        C  0.91937492  0.30001535  0.15896395    -0.10100
C451        C  0.93524799  0.32588739  0.13617207    -0.11000
C452        C  0.91869177  0.34228766  0.12205153     0.20600
C453        C  0.88633433  0.33284299  0.13083369    -0.13000
C454        C  0.87050558  0.30704184  0.15356663    -0.11300
C455        C  0.93493025  0.36928648  0.09958071     0.01500
C456        C  0.94829280  0.39272515  0.08243761    -0.31300
C457        C  0.87029515  0.26417673  0.19105257     0.02900
C458        C  0.85399590  0.24258489  0.21043694    -0.33000
H459        H  0.93230392  0.28745335  0.16984081     0.14000
H460        H  0.96035303  0.33315602  0.12972648     0.13800
H461        H  0.87340051  0.34548839  0.12026745     0.13600
H462        H  0.84545367  0.29994427  0.16024507     0.12700
C463        C  0.83793853  0.39342938  0.88687570     0.19000
C464        C  0.83707376  0.37321916  0.85637253    -0.10100
C465        C  0.80923958  0.35809309  0.83374303    -0.11000
C466        C  0.78183658  0.36293813  0.84126916     0.20600
C467        C  0.78251652  0.38287007  0.87213281    -0.13000
C468        C  0.81040382  0.39803721  0.89478148    -0.11300
C469        C  0.75336818  0.34779344  0.81692587     0.01500
C470        C  0.72985778  0.33517078  0.79614048    -0.31300
C471        C  0.86746258  0.41034800  0.90845547     0.02900
C472        C  0.89301736  0.42541648  0.92387320    -0.33000
H473        H  0.85808212  0.36943469  0.84967984     0.14000
H474        H  0.80920348  0.34282226  0.81006496     0.13800
H475        H  0.76160701  0.38691818  0.87842369     0.13600
H476        H  0.81059951  0.41362703  0.91807706     0.12700
C477        C  0.92180040  0.54437037  0.37720819     0.19000
C478        C  0.92678161  0.54967394  0.33541896    -0.10100
C479        C  0.90982498  0.56287270  0.31403261    -0.11000
C480        C  0.88789930  0.57089189  0.33440271     0.20600
C481        C  0.88361981  0.56641461  0.37642524    -0.13000
C482        C  0.90057859  0.55319538  0.39781933    -0.11300
C483        C  0.86756763  0.58085065  0.31164556     0.01500
C484        C  0.84803221  0.58580420  0.29254469    -0.31300
C485        C  0.93734637  0.52859266  0.39831462     0.02900
C486        C  0.95049218  0.51473415  0.41414952    -0.33000
H487        H  0.94313083  0.54289972  0.31920956     0.14000
H488        H  0.91308782  0.56598967  0.28148575     0.13800
H489        H  0.86650381  0.57230280  0.39238399     0.13600
H490        H  0.89654807  0.54916620  0.43012404     0.12700
C491        C  0.88205989  0.56746341  0.15844380     0.19000
C492        C  0.86769113  0.54895611  0.12527913    -0.10100
C493        C  0.88401587  0.53494360  0.10429297    -0.11000
C494        C  0.91471903  0.53943289  0.11649298     0.20600
C495        C  0.92941367  0.55864797  0.14885686    -0.13000
C496        C  0.91308282  0.57261227  0.16986796    -0.11300
C497        C  0.93067429  0.52325461  0.09743084     0.01500
C498        C  0.94516009  0.50989727  0.08377958    -0.31300
C499        C  0.86382730  0.57875057  0.18293371     0.02900
C500        C  0.84592888  0.58465503  0.20396585    -0.33000
H501        H  0.84357158  0.54466699  0.11646294     0.14000
H502        H  0.87244712  0.52007657  0.07934258     0.13800
H503        H  0.95314613  0.56219275  0.15851970     0.13600
H504        H  0.92424932  0.58667057  0.19569546     0.12700
C505        C  0.62639325  0.53302318  0.37620488     0.19000
C506        C  0.62875803  0.54648490  0.33815154    -0.10100
C507        C  0.65811406  0.55922154  0.31840476    -0.11000
C508        C  0.68520768  0.55861023  0.33672224     0.20600
C509        C  0.68299388  0.54571546  0.37518210    -0.13000
C510        C  0.65360625  0.53294812  0.39493220    -0.11300
C511        C  0.71477322  0.56947069  0.31494307     0.01500
C512        C  0.73895624  0.57652625  0.29569015    -0.31300
C513        C  0.59583224  0.51842998  0.39519573     0.02900
C514        C  0.56972570  0.50611435  0.40979457    -0.33000
H515        H  0.60782698  0.54663550  0.32344344     0.14000
H516        H  0.65957018  0.56898343  0.28856458     0.13800
H517        H  0.70381090  0.54500303  0.38947755     0.13600
H518        H  0.65199780  0.52257885  0.42436191     0.12700
C519        C  0.62503789  0.53154068  0.12534969     0.19000
C520        C  0.62937152  0.55079912  0.15828916    -0.10100
C521        C  0.65847241  0.56267248  0.17871176    -0.11000
C522        C  0.68333124  0.55535885  0.16620310     0.20600
C523        C  0.67913821  0.53633838  0.13296272    -0.13000
C524        C  0.65000240  0.52444012  0.11253481    -0.11300
C525        C  0.71271262  0.56651751  0.18837369     0.01500
C526        C  0.73710943  0.57449622  0.20735082    -0.31300
C527        C  0.59476040  0.51866574  0.10532354     0.02900
C528        C  0.56908934  0.50787396  0.08925243    -0.33000
H529        H  0.61017330  0.55638285  0.16841280     0.14000
H530        H  0.66147985  0.57726576  0.20447632     0.13800
H531        H  0.69822424  0.53047673  0.12316800     0.13600
H532        H  0.64684077  0.50953525  0.08709600     0.12700
C533        C  0.33517145  0.90407992  0.61162599     0.19000
C534        C  0.30546986  0.88848264  0.59333468    -0.10100
C535        C  0.27900939  0.87193696  0.61735821    -0.11000
C536        C  0.28223476  0.87103051  0.65965184     0.20600
C537        C  0.31178258  0.88714283  0.67789531    -0.13000
C538        C  0.33815730  0.90364701  0.65394654    -0.11300
C539        C  0.25582551  0.85230908  0.68424235     0.01500
C540        C  0.23462942  0.83536753  0.70506548    -0.31300
C541        C  0.36306706  0.91978650  0.58749250     0.02900
C542        C  0.38837230  0.93343635  0.57136013    -0.33000
H543        H  0.30290550  0.88868934  0.56062810     0.14000
H544        H  0.25625013  0.85944156  0.60296106     0.13800
H545        H  0.31455527  0.88648731  0.71053279     0.13600
H546        H  0.36102350  0.91564408  0.66836910     0.12700
C547        C  0.08013411  0.64081167  0.62136819     0.19000
C548        C  0.10698646  0.66426977  0.60566180    -0.10100
C549        C  0.12184796  0.69041594  0.62813481    -0.11000
C550        C  0.10984832  0.69312486  0.66629299     0.20600
C551        C  0.08290884  0.66974181  0.68190201    -0.13000
C552        C  0.06803121  0.64361702  0.65941667    -0.11300
C553        C  0.12597205  0.71945629  0.68998969     0.01500
C554        C  0.14144989  0.74129415  0.70938886    -0.31300
C555        C  0.06544535  0.61348124  0.59918177     0.02900
C556        C  0.05245639  0.58969411  0.58281913    -0.33000
H557        H  0.11657572  0.66222682  0.57634260     0.14000
H558        H  0.14283747  0.70836030  0.61599942     0.13800
H559        H  0.07364983  0.67159329  0.71153584     0.13600
H560        H  0.04733681  0.62550652  0.67185024     0.12700
C561        C  0.29110771  0.86673453  0.83284034     0.19000
C562        C  0.31683444  0.85876162  0.82972964    -0.10100
C563        C  0.34474262  0.87463925  0.85135499    -0.11000
C564        C  0.34689006  0.89845303  0.87613027     0.20600
C565        C  0.32119205  0.90645268  0.87919825    -0.13000
C566        C  0.29327106  0.89056207  0.85758048    -0.11300
C567        C  0.37575483  0.91518000  0.89755660     0.01500
C568        C  0.40042657  0.93005303  0.91405318    -0.31300
C569        C  0.26233963  0.85001884  0.81118876     0.02900
C570        C  0.23868041  0.83442397  0.79319485    -0.33000
H571        H  0.31528182  0.84029394  0.81067830     0.14000
H572        H  0.36460839  0.86843168  0.84870312     0.13800
H573        H  0.32278185  0.92496233  0.89817838     0.13600
H574        H  0.27342413  0.89679429  0.86017314     0.12700
C575        C  0.07901929  0.63741231  0.87622089     0.19000
C576        C  0.09511445  0.63879298  0.83968912    -0.10100
C577        C  0.11033695  0.66594532  0.81956664    -0.11000
C578        C  0.10954417  0.69185476  0.83585685     0.20600
C579        C  0.09306651  0.69046127  0.87210947    -0.13000
C580        C  0.07777033  0.66323658  0.89224923    -0.11300
C581        C  0.12671819  0.71982770  0.81583170     0.01500
C582        C  0.14290525  0.74209617  0.79753573    -0.31300
C583        C  0.06408118  0.60949671  0.89723303     0.02900
C584        C  0.05148113  0.58562923  0.91363801    -0.33000
H585        H  0.09613196  0.61894549  0.82697058     0.14000
H586        H  0.12303219  0.66680900  0.79155459     0.13800
H587        H  0.09234873  0.71038968  0.88497276     0.13600
H588        H  0.06527407  0.66236627  0.92042160     0.12700
C589        C  0.31984133  0.41902793  0.66483142     0.19000
C590        C  0.32336513  0.41303277  0.62396449    -0.10100
C591        C  0.35304085  0.42688552  0.60508369    -0.11000
C592        C  0.37918917  0.44679614  0.62702373     0.20600
C593        C  0.37570312  0.45247400  0.66800279    -0.13000
C594        C  0.34608482  0.43864336  0.68685047    -0.11300
C595        C  0.40952707  0.46171454  0.60752425     0.01500
C596        C  0.43521145  0.47428450  0.59184749    -0.31300
C597        C  0.28910932  0.40659597  0.68382789     0.02900
C598        C  0.26420714  0.39919704  0.70155713    -0.33000
H599        H  0.30315196  0.39804321  0.60662252     0.14000
H600        H  0.35552281  0.42234261  0.57336892     0.13800
H601        H  0.39577435  0.46782010  0.68522668     0.13600
H602        H  0.34352573  0.44358925  0.71838692     0.12700
C603        C  0.32050827  0.42073171  0.82801522     0.19000
C604        C  0.32254206  0.43445623  0.86579763    -0.10100
C605        C  0.35178370  0.44761528  0.88567556    -0.11000
C606        C  0.37905748  0.44713351  0.86774899     0.20600
C607        C  0.37703451  0.43333293  0.83000308    -0.13000
C608        C  0.34776447  0.42015954  0.81010727    -0.11300
C609        C  0.40922443  0.46142249  0.88763286     0.01500
C610        C  0.43474264  0.47386461  0.90362466    -0.31300
C611        C  0.29068572  0.40851439  0.80696255     0.02900
C612        C  0.26576696  0.40060819  0.78924736    -0.33000
H613        H  0.30160612  0.43523090  0.87965825     0.14000
H614        H  0.35318572  0.45837031  0.91477045     0.13800
H615        H  0.39807665  0.43299633  0.81585474     0.13600
H616        H  0.34643086  0.40981280  0.78071333     0.12700
C617        C  0.12216108  0.41871473  0.66417394     0.19000
C618        C  0.09098290  0.41209744  0.67665720    -0.10100
C619        C  0.07330652  0.42539582  0.65708919    -0.11000
C620        C  0.08681793  0.44541095  0.62511164     0.20600
C621        C  0.11788570  0.45177945  0.61235227    -0.13000
C622        C  0.13554414  0.43845926  0.63188478    -0.11300
C623        C  0.06912668  0.46007450  0.60630745     0.01500
C624        C  0.05397648  0.47247683  0.59168939    -0.31300
C625        C  0.14111191  0.40661102  0.68576427     0.02900
C626        C  0.15902303  0.39905668  0.70424310    -0.33000
H627        H  0.08055239  0.39705258  0.70182721     0.14000
H628        H  0.04931562  0.42041345  0.66723379     0.13800
H629        H  0.12856348  0.46730039  0.58773858     0.13600
H630        H  0.15974958  0.44388047  0.62224476     0.12700
C631        C  0.12059121  0.41511868  0.83296581     0.19000
C632        C  0.11876828  0.41373978  0.87548703    -0.10100
C633        C  0.10117731  0.42665084  0.89627090    -0.11000
C634        C  0.08546059  0.44102508  0.87455767     0.20600
C635        C  0.08684083  0.44188741  0.83203453    -0.13000
C636        C  0.10437316  0.42898762  0.81129308    -0.11300
C637        C  0.06839546  0.45546427  0.89557355     0.01500
C638        C  0.05362210  0.46798916  0.91100364    -0.31300
C639        C  0.14083276  0.40431123  0.81154140     0.02900
C640        C  0.15949148  0.39805892  0.79245387    -0.33000
H641        H  0.13140281  0.40322565  0.89253643     0.14000
H642        H  0.10023043  0.42582924  0.92916195     0.13800
H643        H  0.07475705  0.45292046  0.81495636     0.13600
H644        H  0.10580100  0.43033924  0.77843099     0.12700
C645        C  0.15900733  0.58593867  0.11614462     0.19000
C646        C  0.17882324  0.61578963  0.10748250    -0.10100
C647        C  0.20665307  0.63106803  0.13031270    -0.11000
C648        C  0.21505616  0.61674018  0.16218293     0.20600
C649        C  0.19507258  0.58700602  0.17103989    -0.13000
C650        C  0.16730477  0.57175313  0.14824372    -0.11300
C651        C  0.24416379  0.63222563  0.18551669     0.01500
C652        C  0.26843036  0.64442736  0.20526826    -0.31300
C653        C  0.13022695  0.56972129  0.09249154     0.02900
C654        C  0.10551564  0.55460852  0.07504823    -0.33000
H655        H  0.17284915  0.62723661  0.08299177     0.14000
H656        H  0.22167584  0.65401962  0.12297562     0.13800
H657        H  0.20102340  0.57552338  0.19551343     0.13600
H658        H  0.15233337  0.54879035  0.15560187     0.12700
C659        C  0.21766681  0.61598185  0.34151455     0.19000
C660        C  0.18791814  0.61362561  0.32771437    -0.10100
C661        C  0.16017905  0.59796079  0.35047681    -0.11000
C662        C  0.16164964  0.58434895  0.38747607     0.20600
C663        C  0.19143433  0.58690338  0.40146286    -0.13000
C664        C  0.21919797  0.60259414  0.37869291    -0.11300
C665        C  0.13256798  0.56712217  0.41017262     0.01500
C666        C  0.10747469  0.55195925  0.42686708    -0.31300
C667        C  0.24633405  0.63158894  0.31726002     0.02900
C668        C  0.27002365  0.64414777  0.29649383    -0.33000
H669        H  0.18609933  0.62370741  0.29913572     0.14000
H670        H  0.13749898  0.59624306  0.33897853     0.13800
H671        H  0.19319330  0.57654334  0.42982278     0.13600
H672        H  0.24184537  0.60406980  0.38996756     0.12700
C673        C  0.39425105  0.61673252  0.15607124     0.19000
C674        C  0.37558178  0.59303530  0.13080567    -0.10100
C675        C  0.38966037  0.57788451  0.10749556    -0.11000
C676        C  0.42261508  0.58626155  0.10910407     0.20600
C677        C  0.44136690  0.61020965  0.13398989    -0.13000
C678        C  0.42727450  0.62536615  0.15733045    -0.11300
C679        C  0.43690247  0.56941892  0.08689213     0.01500
C680        C  0.44866209  0.55426123  0.07067116    -0.31300
C681        C  0.37937087  0.63165827  0.18113463     0.02900
C682        C  0.36629216  0.64346927  0.20216840    -0.33000
H683        H  0.35006170  0.58604223  0.12945416     0.14000
H684        H  0.37477108  0.55937602  0.08863296     0.13800
H685        H  0.46682815  0.61691397  0.13578021     0.13600
H686        H  0.44208708  0.64359068  0.17667011     0.12700
C687        C  0.39680938  0.61551942  0.33526487     0.19000
C688        C  0.39645524  0.58862869  0.32074329    -0.10100
C689        C  0.41045435  0.57305639  0.34339560    -0.11000
C690        C  0.42504269  0.58413345  0.38091210     0.20600
C691        C  0.42578527  0.61123290  0.39520699    -0.13000
C692        C  0.41175764  0.62681829  0.37253459    -0.11300
C693        C  0.43902190  0.56755185  0.40446481     0.01500
C694        C  0.45035592  0.55245956  0.42189811    -0.31300
C695        C  0.38128460  0.63104473  0.31235938     0.02900
C696        C  0.36770569  0.64332150  0.29301519    -0.33000
H697        H  0.38511963  0.57955224  0.29203068     0.14000
H698        H  0.40972091  0.55224686  0.33173061     0.13800
H699        H  0.43702231  0.62023273  0.42398881     0.13600
H700        H  0.41235270  0.64756193  0.38424734     0.12700
C701        C  0.38829677  0.78125844  0.15777267     0.19000
C702        C  0.41579829  0.80483407  0.17220781    -0.10100
C703        C  0.43040157  0.83110896  0.14941483    -0.11000
C704        C  0.41778039  0.83428861  0.11177737     0.20600
C705        C  0.39041730  0.81061489  0.09712709    -0.13000
C706        C  0.37580255  0.78428843  0.11994329    -0.11300
C707        C  0.43266134  0.86202910  0.08897655     0.01500
C708        C  0.44609684  0.88616483  0.07258852    -0.31300
C709        C  0.37287949  0.75427124  0.18196195     0.02900
C710        C  0.36041447  0.73198865  0.20269326    -0.33000
H711        H  0.42587165  0.80299845  0.20126685     0.14000
H712        H  0.45146679  0.84906921  0.16133707     0.13800
H713        H  0.38024220  0.81255903  0.06820116     0.13600
H714        H  0.35463116  0.76637411  0.10817706     0.12700
C715        C  0.38749357  0.78282306  0.33689860     0.19000
C716        C  0.41383378  0.80718264  0.32155712    -0.10100
C717        C  0.42745584  0.83380143  0.34383548    -0.11000
C718        C  0.41496230  0.83649030  0.38179552     0.20600
C719        C  0.38864929  0.81212177  0.39717305    -0.13000
C720        C  0.37502800  0.78547902  0.37489089    -0.11300
C721        C  0.42918264  0.86422492  0.40460935     0.01500
C722        C  0.44232074  0.88812488  0.42159963    -0.31300
C723        C  0.37316614  0.75533057  0.31359260     0.02900
C724        C  0.36115735  0.73254168  0.29382488    -0.33000
H725        H  0.42381223  0.80564102  0.29230045     0.14000
H726        H  0.44773726  0.85232834  0.33138683     0.13800
H727        H  0.37862052  0.81370791  0.42636481     0.13600
H728        H  0.35470576  0.76696594  0.38727565     0.12700
loop_ 
_geom_bond_atom_site_label_1 
_geom_bond_atom_site_label_2 
_geom_bond_distance 
_geom_bond_site_symmetry_2 
_ccdc_geom_bond_type 
C1            H2   1.112       .  S
C1            C7   1.549       .  S
C1            C6   1.545       .  S
C1            C5   1.544       .  S
C3            H4   1.111       .  S
C3            C9   1.549       .  S
C3            C8   1.546       .  S
C3           C10   1.549       .  S
C5            C8   1.372       .  D
C5          C682   1.458       .  S
C6            C9   1.374       .  D
C6          C710   1.464       .  S
C7           C10   1.375       .  D
C7          C652   1.464       .  S
C8          C696   1.461       .  S
C9          C724   1.462       .  S
C10         C668   1.467       .  S
C11          C12   1.409       .  A
C11          C16   1.400       .  A
C11         C626   1.439       .  S
C12          C13   1.399       .  A
C12         C640   1.442       .  S
C13          C14   1.399       .  A
C13          H18   1.085       .  S
C14          C15   1.407       .  A
C14         C612   1.439       .  S
C15          C16   1.398       .  A
C15         C598   1.441       .  S
C16          H17   1.085       .  S
C19          C20   1.408       .  A
C19          C24   1.398       .  A
C19         C582   1.442       .  S
C20          C21   1.398       .  A
C20         C554   1.437       .  S
C21          C22   1.397       .  A
C21          H26   1.085       .  S
C22          C23   1.408       .  A
C22         C540   1.442       .  S
C23          C24   1.400       .  A
C23         C570   1.436       .  S
C24          H25   1.085       .  S
C27          C28   1.408       .  A
C27          C32   1.397       .  A
C27         C526   1.440       .  S
C28          C29   1.400       .  A
C28         C512   1.440       .  S
C29          C30   1.400       .  A
C29          H34   1.085       .  S
C30          C31   1.409       .  A
C30         C484   1.441       .  S
C31          C32   1.398       .  A
C31         C500   1.438       .  S
C32          H33   1.086       .  S
O35         Ni41   1.932       .  S
O35          C56   1.270       .  A
O36         Ni59   1.922       .  S
O36          C45   1.269       .  A
O37         Ni41   1.924       .  S
O37         Ni59   1.922   1_454  S
O37         Ni53   1.915   1_554  S
O37          H60   0.965       .  S
C38         C584   1.433       .  S
C38          O55   1.265       .  A
C38          O47   1.270       .  A
O39         Ni58   1.933       .  S
O39          C45   1.270       .  A
O40         Ni58   1.902   1_455  S
O40          C42   1.270       .  A
Ni41         O44   1.932   1_455  S
Ni41         O46   1.900   1_455  S
C42         C638   1.434       .  S
C42          O52   1.278       .  A
O43         Ni59   1.900   1_554  S
O43          C49   1.265       .  A
O44          C49   1.270       .  A
C45         C472   1.452       .  S
O46          C48   1.268       .  A
O47         Ni58   1.933   1_455  S
C48         C498   1.430       .  S
C48          O54   1.274       .  A
C49         C456   1.430       .  S
H50          O51   0.967       .  S
O51         Ni59   1.918       .  S
O51         Ni53   1.922   1_655  S
O51         Ni58   1.924       .  S
O52         Ni53   1.948       .  S
Ni53         O57   1.929   1_556  S
Ni53         O55   1.902       .  S
O54         Ni59   1.940   1_554  S
C56         C654   1.456       .  S
C56          O57   1.272       .  A
O61         Ni67   1.934       .  S
O61          C82   1.271       .  A
O62         Ni85   1.931       .  S
O62          C71   1.272       .  A
O63         Ni67   1.921       .  S
O63         Ni85   1.919   1_655  S
O63         Ni79   1.910       .  S
O63          H86   0.969       .  S
C64         C430   1.432       .  S
C64          O81   1.264       .  A
C64          O73   1.269       .  A
O65         Ni84   1.931       .  S
O65          C71   1.270       .  A
O66         Ni84   1.899   1_655  S
O66          C68   1.270       .  A
Ni67         O70   1.933   1_655  S
Ni67         O72   1.901   1_655  S
C68         C486   1.432       .  S
C68          O78   1.279       .  A
O69         Ni85   1.900       .  S
O69          C75   1.266       .  A
O70          C75   1.271       .  A
C71         C666   1.458       .  S
O72          C74   1.269       .  A
O73         Ni84   1.933   1_655  S
C74         C624   1.431       .  S
C74          O80   1.276       .  A
C75         C556   1.429       .  S
H76          O77   0.964       .  S
O77         Ni85   1.923       .  S
O77         Ni79   1.923   1_455  S
O77         Ni84   1.923       .  S
O78         Ni79   1.948       .  S
Ni79         O83   1.924       .  S
Ni79         O81   1.902       .  S
O80         Ni85   1.942       .  S
C82         C444   1.452       .  S
C82          O83   1.271       .  A
C87          C88   1.407       .  A
C87          C92   1.398       .  A
C87         C458   1.439       .  S
C88          C89   1.399       .  A
C88         C428   1.439       .  S
C89          C90   1.399       .  A
C89          H94   1.085       .  S
C90          C91   1.408       .  A
C90         C400   1.441       .  S
C91          C92   1.398       .  A
C91         C414   1.439       .  S
C92          H93   1.085       .  S
C95          C96   1.406       .  A
C95         C100   1.396       .  A
C95         C372   1.436       .  S
C96          C97   1.399       .  A
C96         C388   1.441       .  S
C97          C98   1.400       .  A
C97         H102   1.085       .  S
C98          C99   1.409       .  A
C98         C344   1.440       .  S
C99         C100   1.397       .  A
C99         C358   1.439       .  S
C100        H101   1.085       .  S
C103        C104   1.408       .  A
C103        C108   1.399       .  A
C103        C330   1.439       .  S
C104        C105   1.400       .  A
C104        C302   1.446       .  S
C105        C106   1.402       .  A
C105        H110   1.085       .  S
C106        C107   1.410       .  A
C106        C288   1.441       .  S
C107        C108   1.399       .  A
C107        C316   1.444       .  S
C108        H109   1.085       .  S
O111       Ni117   1.929       .  S
O111        C132   1.269       .  A
O112       Ni135   1.929       .  S
O112        C121   1.272       .  A
O113       Ni117   1.926       .  S
O113       Ni135   1.925   1_565  S
O113       Ni129   1.922       .  S
O113        H136   0.967       .  S
C114        C542   1.433       .  S
C114        O131   1.266       .  A
C114        O123   1.272       .  A
O115       Ni134   1.937       .  S
O115        C121   1.272       .  A
O116       Ni134   1.907   1_565  S
O116        C118   1.270       .  A
Ni117       O120   1.930   1_565  S
Ni117       O122   1.897       .  S
C118        C304   1.438       .  S
C118        O128   1.276       .  A
O119       Ni135   1.903       .  S
O119        C125   1.265       .  A
O120        C125   1.269       .  A
C121        C274   1.457       .  S
O122        C124   1.268   1_565  A
O123       Ni134   1.934   1_565  S
C124        C374   1.427       .  S
C124        O130   1.277       .  A
C125        C402   1.431       .  S
H126        O127   0.965       .  S
O127       Ni135   1.911       .  S
O127       Ni129   1.920   1_545  S
O127       Ni134   1.923       .  S
O128       Ni129   1.945       .  S
Ni129       O133   1.926       .  S
Ni129       O131   1.903       .  S
O130       Ni135   1.943       .  S
C132        C722   1.453       .  S
C132        O133   1.270       .  A
O137       Ni143   1.932       .  S
O137        C158   1.270       .  A
O138       Ni161   1.920       .  S
O138        C147   1.269       .  A
O139       Ni143   1.922       .  S
O139       Ni161   1.918       .  S
O139       Ni155   1.914       .  S
O139        H162   0.965       .  S
C140        C290   1.432       .  S
C140        O157   1.264       .  A
C140        O149   1.269       .  A
O141       Ni160   1.929       .  S
O141        C147   1.269       .  A
O142       Ni160   1.900       .  S
O142        C144   1.270       .  A
Ni143       O146   1.934       .  S
Ni143       O148   1.902       .  S
C144        C596   1.432       .  S
C144        O154   1.278       .  A
O145       Ni161   1.899       .  S
O145        C151   1.264       .  A
O146        C151   1.271       .  A
C147        C260   1.449       .  S
O148        C150   1.268       .  A
O149       Ni160   1.931       .  S
C150        C514   1.431       .  S
C150        O156   1.275       .  A
C151        C360   1.429       .  S
H152        O153   0.967       .  S
O153       Ni161   1.920       .  S
O153       Ni155   1.921       .  S
O153       Ni160   1.923       .  S
O154       Ni155   1.946       .  S
Ni155       O159   1.924       .  S
Ni155       O157   1.902       .  S
O156       Ni161   1.942       .  S
C158        C694   1.452       .  S
C158        O159   1.271       .  A
O163       Ni169   1.936       .  S
O163        C184   1.270       .  A
O164       Ni187   1.928   1_554  S
O164        C173   1.271       .  A
O165       Ni169   1.925       .  S
O165       Ni187   1.923   1_545  S
O165       Ni181   1.906   1_556  S
O165        H188   0.967       .  S
C166        C416   1.428       .  S
C166        O183   1.263       .  A
C166        O175   1.270       .  A
O167       Ni186   1.932       .  S
O167        C173   1.270       .  A
O168       Ni186   1.902       .  S
O168        C170   1.269   1_565  A
Ni169       O172   1.927   1_545  S
Ni169       O174   1.901   1_545  S
C170        C386   1.432       .  S
C170        O180   1.277       .  A
O171       Ni187   1.896       .  S
O171        C177   1.265       .  A
O172        C177   1.271       .  A
C173        C708   1.455       .  S
O174        C176   1.268       .  A
O175       Ni186   1.934   1_545  S
C176        C332   1.430       .  S
C176        O182   1.274       .  A
C177        C568   1.425       .  S
H178        O179   0.962       .  S
O179       Ni187   1.918   1_554  S
O179       Ni181   1.922   1_565  S
O179       Ni186   1.926       .  S
O180       Ni181   1.945       .  S
Ni181       O185   1.922   1_554  S
Ni181       O183   1.895       .  S
O182       Ni187   1.937       .  S
C184        C246   1.452       .  S
C184        O185   1.269       .  A
O189       Ni195   1.927       .  S
O189        C210   1.269       .  A
O190       Ni213   1.918   1_554  S
O190        C199   1.269       .  A
O191       Ni195   1.924       .  S
O191       Ni213   1.918       .  S
O191       Ni207   1.923       .  S
O191        H214   0.967       .  S
C192        C346   1.432       .  S
C192        O209   1.266       .  A
C192        O201   1.271       .  A
O193       Ni212   1.934       .  S
O193        C199   1.271       .  A
O194       Ni212   1.902       .  S
O194        C196   1.269       .  A
Ni195       O198   1.934       .  S
Ni195       O200   1.899       .  S
C196        C528   1.430       .  S
C196        O206   1.274       .  A
O197       Ni213   1.906       .  S
O197        C203   1.265       .  A
O198        C203   1.269       .  A
C199        C680   1.449       .  S
O200        C202   1.269       .  A
O201       Ni212   1.933       .  S
C202        C610   1.428       .  S
C202        O208   1.277       .  A
C203        C318   1.435       .  S
H204        O205   0.965       .  S
O205       Ni213   1.914   1_554  S
O205       Ni207   1.918   1_554  S
O205       Ni212   1.922       .  S
O206       Ni207   1.937   1_554  S
Ni207       O211   1.921       .  S
Ni207       O209   1.903   1_556  S
O208       Ni213   1.944       .  S
C210        C234   1.448       .  S
C210        O211   1.270       .  A
C215        H216   1.112       .  S
C215        C221   1.547       .  S
C215        C220   1.548       .  S
C215        C219   1.543       .  S
C217        H218   1.112       .  S
C217        C223   1.546       .  S
C217        C222   1.543       .  S
C217        C224   1.542       .  S
C219        C222   1.372       .  D
C219        C262   1.457       .  S
C220        C223   1.374       .  D
C220        C276   1.466       .  S
C221        C224   1.374       .  D
C221        C442   1.460       .  S
C222        C232   1.457       .  S
C223        C248   1.461       .  S
C224        C470   1.460       .  S
C225        C226   1.404       .  A
C225        C230   1.403       .  A
C225        C233   1.453       .  S
C226        C227   1.405       .  A
C226        H235   1.083       .  S
C227        C228   1.404       .  A
C227        H236   1.083       .  S
C228        C229   1.403       .  A
C228        C231   1.452       .  S
C229        C230   1.404       .  A
C229        H237   1.083       .  S
C230        H238   1.083       .  S
C231        C232   1.213       .  T
C233        C234   1.214       .  T
C239        C240   1.406       .  A
C239        C244   1.403       .  A
C239        C247   1.456       .  S
C240        C241   1.408       .  A
C240        H249   1.083       .  S
C241        C242   1.405       .  A
C241        H250   1.083       .  S
C242        C243   1.404       .  A
C242        C245   1.457       .  S
C243        C244   1.404       .  A
C243        H251   1.083       .  S
C244        H252   1.083       .  S
C245        C246   1.216       .  T
C247        C248   1.216       .  T
C253        C254   1.403       .  A
C253        C258   1.404       .  A
C253        C261   1.452       .  S
C254        C255   1.403       .  A
C254        H263   1.083       .  S
C255        C256   1.404       .  A
C255        H264   1.083       .  S
C256        C257   1.404       .  A
C256        C259   1.453       .  S
C257        C258   1.405       .  A
C257        H265   1.083       .  S
C258        H266   1.083       .  S
C259        C260   1.214       .  T
C261        C262   1.213       .  T
C267        C268   1.405       .  A
C267        C272   1.405       .  A
C267        C275   1.461       .  S
C268        C269   1.407       .  A
C268        H277   1.083       .  S
C269        C270   1.405       .  A
C269        H278   1.083       .  S
C270        C271   1.406       .  A
C270        C273   1.462       .  S
C271        C272   1.408       .  A
C271        H279   1.083       .  S
C272        H280   1.083       .  S
C273        C274   1.219       .  T
C275        C276   1.219       .  T
C281        C282   1.401       .  A
C281        C286   1.401       .  A
C281        C289   1.437       .  S
C282        C283   1.396       .  A
C282        H291   1.084       .  S
C283        C284   1.400       .  A
C283        H292   1.084       .  S
C284        C285   1.402       .  A
C284        C287   1.437       .  S
C285        C286   1.399       .  A
C285        H293   1.083       .  S
C286        H294   1.083       .  S
C287        C288   1.204       .  T
C289        C290   1.204       .  T
C295        C296   1.401       .  A
C295        C300   1.403       .  A
C295        C303   1.443       .  S
C296        C297   1.398       .  A
C296        H305   1.083       .  S
C297        C298   1.401       .  A
C297        H306   1.084       .  S
C298        C299   1.402       .  A
C298        C301   1.441       .  S
C299        C300   1.401       .  A
C299        H307   1.083       .  S
C300        H308   1.083       .  S
C301        C302   1.207       .  T
C303        C304   1.208       .  T
C309        C310   1.401       .  A
C309        C314   1.401       .  A
C309        C317   1.440       .  S
C310        C311   1.401       .  A
C310        H319   1.083       .  S
C311        C312   1.403       .  A
C311        H320   1.083       .  S
C312        C313   1.400       .  A
C312        C315   1.440       .  S
C313        C314   1.398       .  A
C313        H321   1.084       .  S
C314        H322   1.084       .  S
C315        C316   1.206       .  T
C317        C318   1.206       .  T
C323        C324   1.401       .  A
C323        C328   1.400       .  A
C323        C331   1.435       .  S
C324        C325   1.397       .  A
C324        H333   1.083       .  S
C325        C326   1.400       .  A
C325        H334   1.084       .  S
C326        C327   1.401       .  A
C326        C329   1.434       .  S
C327        C328   1.397       .  A
C327        H335   1.084       .  S
C328        H336   1.084       .  S
C329        C330   1.202       .  T
C331        C332   1.203       .  T
C337        C338   1.400       .  A
C337        C342   1.402       .  A
C337        C345   1.437       .  S
C338        C339   1.398       .  A
C338        H347   1.083       .  S
C339        C340   1.402       .  A
C339        H348   1.084       .  S
C340        C341   1.399       .  A
C340        C343   1.436       .  S
C341        C342   1.397       .  A
C341        H349   1.083       .  S
C342        H350   1.084       .  S
C343        C344   1.203       .  T
C345        C346   1.204       .  T
C351        C352   1.401       .  A
C351        C356   1.400       .  A
C351        C359   1.434       .  S
C352        C353   1.399       .  A
C352        H361   1.083       .  S
C353        C354   1.402       .  A
C353        H362   1.084       .  S
C354        C355   1.398       .  A
C354        C357   1.434       .  S
C355        C356   1.395       .  A
C355        H363   1.084       .  S
C356        H364   1.084       .  S
C357        C358   1.203       .  T
C359        C360   1.203       .  T
C365        C366   1.401       .  A
C365        C370   1.400       .  A
C365        C373   1.432       .  S
C366        C367   1.396       .  A
C366        H375   1.084       .  S
C367        C368   1.400       .  A
C367        H376   1.084       .  S
C368        C369   1.399       .  A
C368        C371   1.430       .  S
C369        C370   1.395       .  A
C369        H377   1.084       .  S
C370        H378   1.084       .  S
C371        C372   1.200       .  T
C373        C374   1.201       .  T
C379        C380   1.402       .  A
C379        C384   1.399       .  A
C379        C387   1.435       .  S
C380        C381   1.400       .  A
C380        H389   1.084       .  S
C381        C382   1.402       .  A
C381        H390   1.083       .  S
C382        C383   1.399       .  A
C382        C385   1.436       .  S
C383        C384   1.395       .  A
C383        H391   1.084       .  S
C384        H392   1.084       .  S
C385        C386   1.204       .  T
C387        C388   1.203       .  T
C393        C394   1.400       .  A
C393        C398   1.402       .  A
C393        C401   1.436       .  S
C394        C395   1.398       .  A
C394        H403   1.083       .  S
C395        C396   1.401       .  A
C395        H404   1.083       .  S
C396        C397   1.400       .  A
C396        C399   1.436       .  S
C397        C398   1.397       .  A
C397        H405   1.084       .  S
C398        H406   1.084       .  S
C399        C400   1.204       .  T
C401        C402   1.204       .  T
C407        C408   1.400       .  A
C407        C412   1.400       .  A
C407        C415   1.433       .  S
C408        C409   1.398       .  A
C408        H417   1.084       .  S
C409        C410   1.401       .  A
C409        H418   1.084       .  S
C410        C411   1.399       .  A
C410        C413   1.434       .  S
C411        C412   1.396       .  A
C411        H419   1.084       .  S
C412        H420   1.084       .  S
C413        C414   1.203       .  T
C415        C416   1.202       .  T
C421        C422   1.401       .  A
C421        C426   1.401       .  A
C421        C429   1.437       .  S
C422        C423   1.398       .  A
C422        H431   1.083       .  S
C423        C424   1.401       .  A
C423        H432   1.083       .  S
C424        C425   1.400       .  A
C424        C427   1.435       .  S
C425        C426   1.397       .  A
C425        H433   1.084       .  S
C426        H434   1.084       .  S
C427        C428   1.203       .  T
C429        C430   1.204       .  T
C435        C436   1.405       .  A
C435        C440   1.404       .  A
C435        C443   1.457       .  S
C436        C437   1.406       .  A
C436        H445   1.083       .  S
C437        C438   1.405       .  A
C437        H446   1.083       .  S
C438        C439   1.403       .  A
C438        C441   1.455       .  S
C439        C440   1.405       .  A
C439        H447   1.083       .  S
C440        H448   1.083       .  S
C441        C442   1.215       .  T
C443        C444   1.216       .  T
C449        C450   1.401       .  A
C449        C454   1.400       .  A
C449        C457   1.434       .  S
C450        C451   1.399       .  A
C450        H459   1.083       .  S
C451        C452   1.402       .  A
C451        H460   1.083       .  S
C452        C453   1.399       .  A
C452        C455   1.435       .  S
C453        C454   1.395       .  A
C453        H461   1.084       .  S
C454        H462   1.084       .  S
C455        C456   1.203       .  T
C457        C458   1.203       .  T
C463        C464   1.404       .  A
C463        C468   1.405       .  A
C463        C471   1.456       .  S
C464        C465   1.404       .  A
C464        H473   1.083       .  S
C465        C466   1.403       .  A
C465        H474   1.083       .  S
C466        C467   1.405       .  A
C466        C469   1.455       .  S
C467        C468   1.406       .  A
C467        H475   1.083       .  S
C468        H476   1.083       .  S
C469        C470   1.215       .  T
C471        C472   1.216       .  T
C477        C478   1.401       .  A
C477        C482   1.401       .  A
C477        C485   1.437       .  S
C478        C479   1.397       .  A
C478        H487   1.084       .  S
C479        C480   1.400       .  A
C479        H488   1.084       .  S
C480        C481   1.402       .  A
C480        C483   1.437       .  S
C481        C482   1.398       .  A
C481        H489   1.083       .  S
C482        H490   1.083       .  S
C483        C484   1.204       .  T
C485        C486   1.204       .  T
C491        C492   1.402       .  A
C491        C496   1.399       .  A
C491        C499   1.433       .  S
C492        C493   1.397       .  A
C492        H501   1.084       .  S
C493        C494   1.400       .  A
C493        H502   1.084       .  S
C494        C495   1.401       .  A
C494        C497   1.435       .  S
C495        C496   1.396       .  A
C495        H503   1.083       .  S
C496        H504   1.084       .  S
C497        C498   1.203       .  T
C499        C500   1.202       .  T
C505        C506   1.401       .  A
C505        C510   1.401       .  A
C505        C513   1.436       .  S
C506        C507   1.397       .  A
C506        H515   1.084       .  S
C507        C508   1.400       .  A
C507        H516   1.084       .  S
C508        C509   1.401       .  A
C508        C511   1.435       .  S
C509        C510   1.398       .  A
C509        H517   1.084       .  S
C510        H518   1.084       .  S
C511        C512   1.203       .  T
C513        C514   1.203       .  T
C519        C520   1.400       .  A
C519        C524   1.401       .  A
C519        C527   1.435       .  S
C520        C521   1.396       .  A
C520        H529   1.083       .  S
C521        C522   1.399       .  A
C521        H530   1.083       .  S
C522        C523   1.402       .  A
C522        C525   1.435       .  S
C523        C524   1.398       .  A
C523        H531   1.084       .  S
C524        H532   1.084       .  S
C525        C526   1.203       .  T
C527        C528   1.203       .  T
C533        C534   1.401       .  A
C533        C538   1.401       .  A
C533        C541   1.437       .  S
C534        C535   1.400       .  A
C534        H543   1.083       .  S
C535        C536   1.402       .  A
C535        H544   1.083       .  S
C536        C537   1.399       .  A
C536        C539   1.437       .  S
C537        C538   1.396       .  A
C537        H545   1.084       .  S
C538        H546   1.084       .  S
C539        C540   1.204       .  T
C541        C542   1.205       .  T
C547        C548   1.400       .  A
C547        C552   1.401       .  A
C547        C555   1.434       .  S
C548        C549   1.397       .  A
C548        H557   1.083       .  S
C549        C550   1.401       .  A
C549        H558   1.084       .  S
C550        C551   1.399       .  A
C550        C553   1.432       .  S
C551        C552   1.396       .  A
C551        H559   1.084       .  S
C552        H560   1.084       .  S
C553        C554   1.201       .  T
C555        C556   1.202       .  T
C561        C562   1.400       .  A
C561        C566   1.399       .  A
C561        C569   1.431       .  S
C562        C563   1.395       .  A
C562        H571   1.084       .  S
C563        C564   1.399       .  A
C563        H572   1.084       .  S
C564        C565   1.400       .  A
C564        C567   1.430       .  S
C565        C566   1.396       .  A
C565        H573   1.084       .  S
C566        H574   1.083       .  S
C567        C568   1.200       .  T
C569        C570   1.201       .  T
C575        C576   1.400       .  A
C575        C580   1.402       .  A
C575        C583   1.438       .  S
C576        C577   1.396       .  A
C576        H585   1.084       .  S
C577        C578   1.400       .  A
C577        H586   1.084       .  S
C578        C579   1.401       .  A
C578        C581   1.437       .  S
C579        C580   1.400       .  A
C579        H587   1.083       .  S
C580        H588   1.083       .  S
C581        C582   1.204       .  T
C583        C584   1.205       .  T
C589        C590   1.401       .  A
C589        C594   1.401       .  A
C589        C597   1.436       .  S
C590        C591   1.399       .  A
C590        H599   1.083       .  S
C591        C592   1.402       .  A
C591        H600   1.083       .  S
C592        C593   1.400       .  A
C592        C595   1.437       .  S
C593        C594   1.396       .  A
C593        H601   1.084       .  S
C594        H602   1.084       .  S
C595        C596   1.204       .  T
C597        C598   1.204       .  T
C603        C604   1.400       .  A
C603        C608   1.400       .  A
C603        C611   1.433       .  S
C604        C605   1.396       .  A
C604        H613   1.084       .  S
C605        C606   1.400       .  A
C605        H614   1.084       .  S
C606        C607   1.401       .  A
C606        C609   1.433       .  S
C607        C608   1.397       .  A
C607        H615   1.084       .  S
C608        H616   1.084       .  S
C609        C610   1.202       .  T
C611        C612   1.202       .  T
C617        C618   1.400       .  A
C617        C622   1.401       .  A
C617        C625   1.435       .  S
C618        C619   1.397       .  A
C618        H627   1.084       .  S
C619        C620   1.401       .  A
C619        H628   1.083       .  S
C620        C621   1.400       .  A
C620        C623   1.436       .  S
C621        C622   1.397       .  A
C621        H629   1.084       .  S
C622        H630   1.084       .  S
C623        C624   1.203       .  T
C625        C626   1.203       .  T
C631        C632   1.402       .  A
C631        C636   1.400       .  A
C631        C639   1.437       .  S
C632        C633   1.400       .  A
C632        H641   1.083       .  S
C633        C634   1.402       .  A
C633        H642   1.083       .  S
C634        C635   1.401       .  A
C634        C637   1.439       .  S
C635        C636   1.397       .  A
C635        H643   1.084       .  S
C636        H644   1.084       .  S
C637        C638   1.205       .  T
C639        C640   1.205       .  T
C645        C646   1.405       .  A
C645        C650   1.405       .  A
C645        C653   1.461       .  S
C646        C647   1.409       .  A
C646        H655   1.083       .  S
C647        C648   1.406       .  A
C647        H656   1.083       .  S
C648        C649   1.404       .  A
C648        C651   1.460       .  S
C649        C650   1.406       .  A
C649        H657   1.083       .  S
C650        H658   1.083       .  S
C651        C652   1.218       .  T
C653        C654   1.219       .  T
C659        C660   1.405       .  A
C659        C664   1.406       .  A
C659        C667   1.463       .  S
C660        C661   1.408       .  A
C660        H669   1.083       .  S
C661        C662   1.406       .  A
C661        H670   1.083       .  S
C662        C663   1.406       .  A
C662        C665   1.463       .  S
C663        C664   1.409       .  A
C663        H671   1.083       .  S
C664        H672   1.083       .  S
C665        C666   1.220       .  T
C667        C668   1.220       .  T
C673        C674   1.403       .  A
C673        C678   1.404       .  A
C673        C681   1.453       .  S
C674        C675   1.404       .  A
C674        H683   1.083       .  S
C675        C676   1.403       .  A
C675        H684   1.083       .  S
C676        C677   1.404       .  A
C676        C679   1.453       .  S
C677        C678   1.405       .  A
C677        H685   1.083       .  S
C678        H686   1.083       .  S
C679        C680   1.214       .  T
C681        C682   1.214       .  T
C687        C688   1.404       .  A
C687        C692   1.405       .  A
C687        C695   1.457       .  S
C688        C689   1.405       .  A
C688        H697   1.083       .  S
C689        C690   1.405       .  A
C689        H698   1.083       .  S
C690        C691   1.404       .  A
C690        C693   1.457       .  S
C691        C692   1.407       .  A
C691        H699   1.083       .  S
C692        H700   1.083       .  S
C693        C694   1.216       .  T
C695        C696   1.216       .  T
C701        C702   1.404       .  A
C701        C706   1.406       .  A
C701        C709   1.460       .  S
C702        C703   1.406       .  A
C702        H711   1.083       .  S
C703        C704   1.405       .  A
C703        H712   1.083       .  S
C704        C705   1.405       .  A
C704        C707   1.460       .  S
C705        C706   1.408       .  A
C705        H713   1.083       .  S
C706        H714   1.083       .  S
C707        C708   1.218       .  T
C709        C710   1.218       .  T
C715        C716   1.404       .  A
C715        C720   1.405       .  A
C715        C723   1.458       .  S
C716        C717   1.406       .  A
C716        H725   1.083       .  S
C717        C718   1.405       .  A
C717        H726   1.083       .  S
C718        C719   1.404       .  A
C718        C721   1.458       .  S
C719        C720   1.407       .  A
C719        H727   1.083       .  S
C720        H728   1.083       .  S
C721        C722   1.217       .  T
C723        C724   1.217       .  T
