geometry optimzed in LAMMPS
_audit_creation_date              2020-11-30 
_audit_creation_method            'lammps2cif' 
_symmetry_space_group_name_H-M    'P1' 
_symmetry_Int_Tables_number       1 
_symmetry_cell_setting            triclinic 
loop_ 
_symmetry_equiv_pos_as_xyz 
  x,y,z 
_cell_length_a                    45.72009189 
_cell_length_b                    24.377212381197886 
_cell_length_c                    39.2406858026783 
_cell_angle_alpha                 89.36696310749322 
_cell_angle_beta                  90.7808708613487 
_cell_angle_gamma                 90.38888899565512 
loop_ 
_atom_site_label 
_atom_site_type_symbol 
_atom_site_fract_x 
_atom_site_fract_y 
_atom_site_fract_z 
_atom_site_charge 
C1          C  0.27445101  0.97615916  0.48628651     0.01700
C2          C  0.27370331  0.03301469  0.98189730     0.01700
C3          C  0.24551138  0.05658750  0.98150176    -0.18800
C4          C  0.21937427  0.02525864  0.98168612     0.01700
C5          C  0.22025709  0.97197472  0.48757682     0.01700
C6          C  0.24778949  0.94678306  0.48579229    -0.18800
H7          H  0.24837145  0.90237714  0.48436004     0.03700
H8          H  0.24386452  0.10094591  0.98186044     0.03700
C9          C  0.37917590  0.83152273  0.48740031     0.85900
C10         C  0.40154035  0.84443962  0.45957137    -0.54300
C11         C  0.42819301  0.82078548  0.46409636     0.08800
C12         C  0.43099118  0.78763529  0.49760941     0.19800
C13         C  0.37940315  0.76649514  0.48833562    -0.55000
C14         C  0.40709673  0.74417684  0.49409748     0.08900
C15         C  0.39647337  0.84830715  0.02002061    -0.54600
C16         C  0.42233365  0.82346312  0.02711479     0.09500
H17         H  0.39561375  0.86128669  0.43480375     0.14000
H18         H  0.45312637  0.77005828  0.50174945    -0.00200
H19         H  0.36011972  0.74127652  0.48393933     0.14300
H20         H  0.38558311  0.87406338  0.03828475     0.14100
O21         O  0.47347847  0.83240219  0.30629245    -0.75900
O22         O  0.49093117  0.89867512  0.34117582    -0.54800
C23         C  0.47954635  0.85151064  0.33623764     0.77900
O24         O  0.07917413  0.91554518  0.18809443    -0.60500
O25         O  0.04234706  0.94052147  0.15217495    -0.53500
C26         C  0.06829547  0.92339485  0.15803999     0.69900
O27         O  0.07542272  0.90635308  0.30375779    -0.75000
O28         O  0.04233131  0.94480930  0.33877709    -0.55600
C29         C  0.06600613  0.91947202  0.33327838     0.75900
O30         O  0.46560095  0.83808554  0.18798575    -0.60200
O31         O  0.48525352  0.90106310  0.15161820    -0.53300
C32         C  0.47181571  0.85633951  0.15789423     0.72500
Zr33       Zr  0.47657086  0.86835099  0.24675476     2.54700
O34         O  0.48878456  0.77144512  0.24385330    -0.80700
O35         O  0.42523295  0.84219054  0.25114434    -0.94100
Zr36       Zr  0.05825108  0.92239957  0.24522667     2.64700
O37         O  0.07082820  0.82548760  0.24356907    -0.99100
O38         O  0.10993367  0.94637627  0.24950976    -0.81200
O39         O  0.01572888  0.90342550  0.27314984    -0.84500
O40         O  0.01670496  0.89166094  0.21350256    -2.19200
O41         O  0.43422446  0.04841976  0.18454304    -0.67900
O42         O  0.46626444  0.00797015  0.14912485    -0.52500
C43         C  0.44378169  0.03732703  0.15435957     0.70900
O44         O  0.04274596  0.11043626  0.30149953    -0.60800
O45         O  0.02349699  0.04725562  0.33811990    -0.52800
C46         C  0.03742578  0.09137804  0.33174590     0.72700
O47         O  0.04393930  0.10460266  0.18229328    -0.72200
O48         O  0.02501432  0.03820511  0.14836061    -0.50900
C49         C  0.03877447  0.08307547  0.15274459     0.74000
O50         O  0.43581257  0.04680395  0.30459070    -0.67500
O51         O  0.46921498  0.00820875  0.34058973    -0.54700
C52         C  0.44578516  0.03491483  0.33490860     0.72400
Zr53       Zr  0.44965981  0.02564623  0.24473625     2.77500
O54         O  0.42910939  0.11731280  0.24757717    -0.98300
O55         O  0.39991283  0.98936897  0.24323793    -0.79100
Zr56       Zr  0.03195971  0.07949125  0.24234554     2.70100
O57         O  0.01281614  0.17246125  0.24237955    -0.80400
O58         O  0.08169314  0.11590199  0.24149447    -0.99400
Zr59       Zr  0.00356629  0.97719618  0.30411570     2.21500
Zr60       Zr  0.00255387  0.97317454  0.18439452     2.11100
O61         O  0.98905284  0.05686723  0.21029393    -2.48100
O62         O  0.99120225  0.04922430  0.27030587    -0.80200
O63         O  0.46553370  0.94838567  0.21817918    -0.72400
O64         O  0.04731858  0.00299641  0.27596165    -2.33300
O65         O  0.46109061  0.94571456  0.27811008    -2.29500
O66         O  0.04154704  0.99813119  0.21665582    -0.74100
H67         H  0.02167409  0.86219038  0.19829533     0.77900
H68         H  0.06322034  0.01274848  0.29128467     0.79000
H69         H  0.98449841  0.08561250  0.19400341     0.81200
H70         H  0.44596537  0.93620646  0.29414394     0.78800
H71         H  0.11036992  0.98263308  0.26063041     0.41800
H72         H  0.09259167  0.09021174  0.22708188     0.40800
H73         H  0.99313399  0.16946995  0.23172074     0.40500
H74         H  0.44210182  0.14038500  0.23333138     0.38400
H75         H  0.40223529  0.94904009  0.24365769     0.41600
H76         H  0.42566111  0.80393440  0.25987228     0.36300
H77         H  0.50577381  0.77010088  0.22851716     0.42500
H78         H  0.05613683  0.80701890  0.25810071     0.38900
H79         H  0.41054074  0.11501330  0.23435250     0.43800
H80         H  0.41810503  0.83895324  0.22731800     0.42500
H81         H  0.06578711  0.81378933  0.22011623     0.42600
H82         H  0.08041519  0.15019038  0.22779363     0.43000
C83         C  0.42185098  0.22837786  0.49263620     0.85900
C84         C  0.42755359  0.19781541  0.45951946    -0.54300
C85         C  0.41729664  0.14513983  0.45882253     0.08800
C86         C  0.40388602  0.12558357  0.49312809     0.19800
C87         C  0.38824892  0.22016063  0.49876354    -0.55000
C88         C  0.37911173  0.16590811  0.49887180     0.08900
C89         C  0.43379644  0.19612135  0.02111919    -0.54600
C90         C  0.42345851  0.14350607  0.02265090     0.09500
H91         H  0.43867817  0.21627674  0.43796554     0.14000
H92         H  0.39610641  0.08245168  0.49258283    -0.00200
H93         H  0.37324432  0.25391170  0.50206781     0.14300
H94         H  0.44927516  0.20997783  0.04027922     0.14100
C95         C  0.08018613  0.75738515  0.49514846     0.85900
C96         C  0.06363964  0.79819807  0.47185767    -0.54300
C97         C  0.07602027  0.84890434  0.46888442     0.08800
C98         C  0.09930877  0.85889640  0.49671779     0.19800
C99         C  0.11372498  0.76521701  0.48670956    -0.55000
C100        C  0.12334639  0.81936209  0.48827065     0.08900
C101        C  0.07727878  0.78569185  0.02853747    -0.54600
C102        C  0.08889939  0.83710966  0.02913522     0.09500
H103        H  0.04598639  0.78614209  0.45469979     0.14000
H104        H  0.10717531  0.90183990  0.49852927    -0.00200
H105        H  0.12819276  0.73144589  0.48125470     0.14300
H106        H  0.06590788  0.76900416  0.05033465     0.14100
C107        C  0.08400661  0.25836133  0.48828944     0.85900
C108        C  0.07875330  0.22672375  0.02484037    -0.54300
C109        C  0.08154976  0.17152218  0.02652130     0.08800
C110        C  0.08861157  0.15095585  0.49162001     0.19800
C111        C  0.11573126  0.23619396  0.48213564    -0.55000
C112        C  0.11786495  0.17921393  0.48404167     0.08900
C113        C  0.06443011  0.22685680  0.46319504    -0.54600
C114        C  0.06754357  0.17179222  0.46355203     0.09500
H115        H  0.07170062  0.24897641  0.04696931     0.14000
H116        H  0.08974963  0.10547019  0.49317431    -0.00200
H117        H  0.13452808  0.26277499  0.47815490     0.14300
H118        H  0.05018544  0.24645575  0.44449472     0.14100
C119        C  0.01134600  0.55172984  0.98456206     0.01700
C120        C  0.48107238  0.54896977  0.98289837     0.01700
C121        C  0.46816282  0.49595756  0.98438858    -0.18800
C122        C  0.48491823  0.44727434  0.98724232     0.01700
C123        C  0.01564918  0.45071736  0.98671583     0.01700
C124        C  0.02820942  0.50358508  0.98562887    -0.18800
H125        H  0.05187039  0.50740500  0.98636258     0.03700
H126        H  0.44450259  0.49261402  0.98414372     0.03700
C127        C  0.03526021  0.40694187  0.48766312    -0.06700
C128        C  0.04417178  0.38492402  0.45656548    -0.17800
C129        C  0.06645563  0.34543714  0.45526194     0.10500
C130        C  0.07755742  0.32110630  0.48586265    -0.06600
C131        C  0.07243964  0.34483886  0.01717142    -0.17900
C132        C  0.05240322  0.38845014  0.01794038     0.10500
S133        S  0.08049771  0.32868415  0.41391327    -0.32800
S134        S  0.04904003  0.42288081  0.05827713    -0.32800
H135        H  0.02752371  0.46127272  0.04946127     0.28500
H136        H  0.10643027  0.30478992  0.42644240     0.28500
H137        H  0.03462880  0.40043443  0.43296220     0.19100
H138        H  0.08346465  0.33352042  0.04072627     0.19100
C139        C  0.06675651  0.69844785  0.49194395    -0.06700
C140        C  0.05407690  0.68240432  0.46039053    -0.17800
C141        C  0.03424932  0.63827105  0.45758176     0.10500
C142        C  0.02662933  0.60725118  0.48676091    -0.06600
C143        C  0.04037341  0.61958027  0.01824982    -0.17900
C144        C  0.06051457  0.66337364  0.02143439     0.10500
S145        S  0.02002769  0.62319879  0.41568042    -0.32800
S146        S  0.08034918  0.66660507  0.06143622    -0.32800
H147        H  0.10573918  0.69017506  0.04749610     0.28500
H148        H  0.02060163  0.56585789  0.41963825     0.28500
H149        H  0.05934217  0.70486475  0.43733510     0.19100
H150        H  0.03569672  0.59433300  0.04045944     0.19100
C151        C  0.43374471  0.28900357  0.49259277    -0.06700
C152        C  0.44837888  0.31470502  0.02143620    -0.17800
C153        C  0.46543531  0.36316491  0.02037587     0.10500
C154        C  0.46662757  0.39053294  0.49055418    -0.06600
C155        C  0.44986498  0.37302820  0.46244992    -0.17900
C156        C  0.43276402  0.32466360  0.46349204     0.10500
S157        S  0.48109674  0.38592642  0.06008598    -0.32800
S158        S  0.40876329  0.31440470  0.42744532    -0.32800
H159        H  0.38604682  0.29047128  0.44619478     0.28500
H160        H  0.97254400  0.44514803  0.05138086     0.28500
H161        H  0.44629923  0.29488571  0.04598512     0.19100
H162        H  0.44925671  0.39856426  0.43966242     0.19100
C163        C  0.43052482  0.06199626  0.12256364    -0.06700
C164        C  0.43092844  0.03080005  0.09237026    -0.17800
C165        C  0.42853650  0.05533632  0.05960931     0.10500
C166        C  0.42456154  0.11265315  0.05645170    -0.06600
C167        C  0.42165846  0.14283859  0.08684593    -0.17900
C168        C  0.42498575  0.11872240  0.11931701     0.10500
S169        S  0.43391844  0.01372259  0.02251304    -0.32800
S170        S  0.42500810  0.16391641  0.15526570    -0.32800
H171        H  0.45279139  0.14752956  0.16709075     0.28500
H172        H  0.43174585  0.95723754  0.54310770     0.28500
H173        H  0.43549254  0.98735709  0.09447633     0.19100
H174        H  0.41753152  0.18650776  0.08542926     0.19100
C175        C  0.43115855  0.05552154  0.36603161    -0.06700
C176        C  0.41716261  0.10632288  0.36455150    -0.17800
C177        C  0.40980525  0.13399061  0.39434500     0.10500
C178        C  0.41797456  0.11213792  0.42685450    -0.06600
C179        C  0.42931019  0.05905386  0.42837491    -0.17900
C180        C  0.43519419  0.03002957  0.39860682     0.10500
S181        S  0.38935449  0.19619836  0.38849223    -0.32800
S182        S  0.44796277  0.96069401  0.40430593    -0.32800
H183        H  0.93088684  0.94677894  0.36951515     0.28500
H184        H  0.37679884  0.19521236  0.42083259     0.28500
H185        H  0.41286875  0.12575129  0.34003509     0.19100
H186        H  0.43460690  0.04063882  0.45287587     0.19100
C187        C  0.04964261  0.10872659  0.12078907    -0.06700
C188        C  0.07674275  0.13593962  0.12056992    -0.17800
C189        C  0.08927938  0.15337377  0.08977673     0.10500
C190        C  0.07468153  0.14221900  0.05842706    -0.06600
C191        C  0.04830863  0.11369878  0.05859506    -0.17900
C192        C  0.03517470  0.09893441  0.08907491     0.10500
S193        S  0.12380763  0.18956294  0.09246983    -0.32800
S194        S  0.99866538  0.07205373  0.08523339    -0.32800
H195        H  0.49105107  0.11587386  0.12276966     0.28500
H196        H  0.13099943  0.18755553  0.05788938     0.28500
H197        H  0.08842685  0.14288963  0.14435905     0.19100
H198        H  0.03651473  0.10714770  0.03479138     0.19100
C199        C  0.05900308  0.14245251  0.43210670    -0.06700
C200        C  0.08128102  0.12503915  0.41055849    -0.17800
C201        C  0.07564852  0.11399355  0.37608357     0.10500
C202        C  0.04696822  0.11994921  0.36273672    -0.06600
C203        C  0.02458193  0.13567556  0.38468177    -0.17900
C204        C  0.03018865  0.14633717  0.41903439     0.10500
S205        S  0.10564320  0.09017603  0.35095788    -0.32800
S206        S  0.99962935  0.16458217  0.44513185    -0.32800
H207        H  0.01261398  0.14935387  0.47649533     0.28500
H208        H  0.09553746  0.11267230  0.31992889     0.28500
H209        H  0.10343270  0.12185873  0.42031597     0.19100
H210        H  0.00215722  0.13685088  0.37531612     0.19100
C211        C  0.09121878  0.86774423  0.06134988    -0.06700
C212        C  0.10432737  0.84193040  0.08989540    -0.17800
C213        C  0.10108475  0.86297494  0.12270670     0.10500
C214        C  0.08497545  0.91160886  0.12683239    -0.06600
C215        C  0.07648860  0.94172072  0.09752316    -0.17900
C216        C  0.07755083  0.91859882  0.06520617     0.10500
S217        S  0.11498909  0.82289982  0.15804662    -0.32800
S218        S  0.05616146  0.94865539  0.03099552    -0.32800
H219        H  0.04429390  0.99206258  0.04943974     0.28500
H220        H  0.12625463  0.86868013  0.17548529     0.28500
H221        H  0.11530582  0.80303884  0.08686322     0.19100
H222        H  0.06493545  0.97997078  0.10052039     0.19100
C223        C  0.08139300  0.90229113  0.36422477    -0.06700
C224        C  0.08424611  0.94139291  0.39014031    -0.17800
C225        C  0.08353147  0.92593408  0.42459534     0.10500
C226        C  0.07972247  0.86993881  0.43319326    -0.06600
C227        C  0.08093253  0.83095780  0.40670212    -0.17900
C228        C  0.08181400  0.84647242  0.37269628     0.10500
S229        S  0.08491137  0.97906438  0.45607259    -0.32800
S230        S  0.07914616  0.79321513  0.34132240    -0.32800
H231        H  0.09966544  0.81789930  0.31951551     0.28500
H232        H  0.09732458  0.01957988  0.43491036     0.28500
H233        H  0.08361877  0.98453512  0.38331926     0.19100
H234        H  0.08100950  0.78739346  0.41219809     0.19100
C235        C  0.45613170  0.59460574  0.48657019    -0.06700
C236        C  0.45475343  0.62038480  0.01513097    -0.17800
C237        C  0.43510069  0.66428340  0.01838428     0.10500
C238        C  0.41686456  0.68518092  0.49379815    -0.06600
C239        C  0.41968578  0.65858284  0.46239894    -0.17900
C240        C  0.43835706  0.61293501  0.45861537     0.10500
S241        S  0.42741414  0.68862618  0.06040816    -0.32800
S242        S  0.43866980  0.58207356  0.41698840    -0.32800
H243        H  0.45834720  0.53945868  0.42379550     0.28500
H244        H  0.44816028  0.65678824  0.07835351     0.28500
H245        H  0.46518424  0.60285828  0.03763078     0.19100
H246        H  0.40839309  0.67518976  0.44017025     0.19100
C247        C  0.43520471  0.82154425  0.06209821    -0.06700
C248        C  0.46566310  0.82478730  0.06570155    -0.17800
C249        C  0.47891762  0.82707266  0.09796807     0.10500
C250        C  0.46128364  0.82828252  0.12726708    -0.06600
C251        C  0.43126428  0.81948431  0.12402177    -0.17900
C252        C  0.41804645  0.81507233  0.09194966     0.10500
S253        S  0.51831343  0.83122251  0.10163022    -0.32800
S254        S  0.37950771  0.79948209  0.09182743    -0.32800
H255        H  0.38048553  0.76561364  0.06317996     0.28500
H256        H  0.52420747  0.82740666  0.06663968     0.28500
H257        H  0.47905359  0.82783778  0.04328266     0.19100
H258        H  0.41773033  0.81960519  0.14650047     0.19100
C259        C  0.44628002  0.81112718  0.43343414    -0.06700
C260        C  0.43238261  0.78890893  0.40436806    -0.17800
C261        C  0.44467507  0.79385429  0.37196982     0.10500
C262        C  0.47175528  0.82127712  0.36826331    -0.06600
C263        C  0.48783100  0.83436478  0.39825171    -0.17900
C264        C  0.47512581  0.83084252  0.43060114     0.10500
S265        S  0.42296383  0.77069358  0.33631668    -0.32800
S266        S  0.49541675  0.85822840  0.46637462    -0.32800
H267        H  0.47150047  0.88207388  0.48259457     0.28500
H268        H  0.44668271  0.74538797  0.32046060     0.28500
H269        H  0.41060397  0.77146685  0.40653267     0.19100
H270        H  0.50914982  0.85378709  0.39617044     0.19100
C271        C  0.14510883  0.14442750  0.48390401    -0.06700
C272        C  0.14952707  0.10013054  0.00807950    -0.17800
C273        C  0.17274790  0.06262600  0.00882051     0.10500
C274        C  0.19128788  0.06454071  0.48561200    -0.06600
C275        C  0.18681138  0.09988200  0.45722435    -0.17900
C276        C  0.16416325  0.13925153  0.45589044     0.10500
S277        S  0.17893296  0.02624906  0.04823045    -0.32800
S278        S  0.16110030  0.18004417  0.41731104    -0.32800
H279        H  0.13327476  0.20197498  0.42216856     0.28500
H280        H  0.20944849  0.03364202  0.04798801     0.28500
H281        H  0.13549638  0.10157632  0.03005095     0.19100
H282        H  0.20152680  0.09727480  0.43588814     0.19100
C283        C  0.19470257  0.93310736  0.48891969    -0.06700
C284        C  0.18120173  0.91823640  0.45800543    -0.17800
C285        C  0.16186602  0.87308724  0.45587702     0.10500
C286        C  0.15350234  0.84371375  0.48556529    -0.06600
C287        C  0.17025692  0.85171289  0.01443578    -0.17900
C288        C  0.19159040  0.89368217  0.01519838     0.10500
S289        S  0.15031854  0.85245622  0.41403063    -0.32800
S290        S  0.21105697  0.90161612  0.05530497    -0.32800
H291        H  0.23056285  0.94355523  0.04612645     0.28500
H292        H  0.14193163  0.79899047  0.42375528     0.28500
H293        H  0.18717547  0.93993482  0.43483976     0.19100
H294        H  0.16397869  0.83194051  0.03814305     0.19100
C295        C  0.34990400  0.86454644  0.48379400    -0.06700
C296        C  0.34796538  0.91121696  0.46173515    -0.17800
C297        C  0.32405472  0.94728001  0.46145500     0.10500
C298        C  0.30200533  0.94183561  0.48610879    -0.06600
C299        C  0.30624222  0.89520910  0.00424866    -0.15200
C300        C  0.32934141  0.85706228  0.00261167     0.10500
S301        S  0.32224289  0.99649288  0.42703258    -0.32800
S302        S  0.32691823  0.79510419  0.02795350    -0.32800
H303        H  0.29771054  0.80100239  0.03803292     0.28500
H304        H  0.29215763  0.98824076  0.42101457     0.28500
H305        H  0.36505425  0.92156352  0.44420247     0.19100
H306        H  0.28887821  0.88774643  0.02222731     0.19100
C307        C  0.34834712  0.14412203  0.50056528    -0.06700
C308        C  0.33015333  0.14917173  0.47166039    -0.17800
C309        C  0.30570657  0.11452256  0.46663848     0.10500
C310        C  0.29963106  0.07159779  0.49051101    -0.06600
C311        C  0.31573188  0.07077541  0.01574217    -0.17900
C312        C  0.33827261  0.10899900  0.02205788     0.10500
S313        S  0.28403839  0.12699133  0.42849273    -0.32800
S314        S  0.35411424  0.10887672  0.06412248    -0.32800
H315        H  0.36273558  0.16438140  0.06287154     0.28500
H316        H  0.27020881  0.07563283  0.42644674     0.28500
H317        H  0.33564843  0.17884912  0.45205405     0.19100
H318        H  0.31016739  0.04109132  0.03541597     0.19100
C319        C  0.27602339  0.97430770  0.98187511     0.01700
C320        C  0.27323129  0.03480645  0.48761522     0.01700
C321        C  0.24554072  0.06029868  0.48811004    -0.18800
C322        C  0.21888298  0.03065749  0.48737051     0.01700
C323        C  0.22181519  0.96665341  0.98333038     0.01700
C324        C  0.24982680  0.94324898  0.98187368    -0.18800
H325        H  0.25113092  0.89886015  0.98116418     0.03700
H326        H  0.24471762  0.10469743  0.48932657     0.03700
C327        C  0.38300977  0.83480572  0.98532090     0.85900
C328        C  0.40677633  0.85157505  0.95988269    -0.54300
C329        C  0.43329020  0.82744604  0.96502799     0.08800
C330        C  0.43446967  0.79070971  0.99711575     0.19800
C331        C  0.38367975  0.76975474  0.98357346    -0.55000
C332        C  0.41120531  0.74731591  0.99031322     0.08900
C333        C  0.39446698  0.84839488  0.52056425    -0.54600
C334        C  0.42051002  0.82372976  0.52707530     0.09500
H335        H  0.40186322  0.87018483  0.93530480     0.14000
H336        H  0.45635927  0.77279551  0.00215120    -0.00200
H337        H  0.36475445  0.74472945  0.97710132     0.14300
H338        H  0.38446059  0.87578733  0.53861286     0.14100
O339        O  0.47438607  0.83971244  0.80641739    -0.75900
O340        O  0.49376635  0.90515097  0.84063806    -0.54800
C341        C  0.48148687  0.85869294  0.83607520     0.77900
O342        O  0.07894233  0.92365386  0.68758067    -0.60500
O343        O  0.04099529  0.94243924  0.65173267    -0.53500
C344        C  0.06741455  0.92839684  0.65768499     0.69900
O345        O  0.07714963  0.91207261  0.80276088    -0.75000
O346        O  0.04415752  0.94927737  0.83836798    -0.55600
C347        C  0.06798796  0.92449829  0.83251009     0.75900
O348        O  0.46711307  0.84435400  0.68746706    -0.60200
O349        O  0.48882803  0.90461047  0.65105117    -0.53300
C350        C  0.47386405  0.86159003  0.65719287     0.72500
Zr351      Zr  0.47891281  0.87368606  0.74678388     2.54700
O352        O  0.49246941  0.77726173  0.74754731    -0.80700
O353        O  0.42745361  0.84751536  0.74816759    -0.94100
Zr354      Zr  0.05857598  0.92718501  0.74470731     2.64700
O355        O  0.06901932  0.82960731  0.74148306    -0.99100
O356        O  0.11081661  0.94674544  0.74741819    -0.81200
O357        O  0.01665499  0.90616978  0.77301630    -0.84500
O358        O  0.01731456  0.89437428  0.71347763    -2.19200
O359        O  0.43823677  0.05228633  0.68492908    -0.67900
O360        O  0.46962212  0.00906601  0.64990919    -0.52500
C361        C  0.44741014  0.03921175  0.65497753     0.70900
O362        O  0.04050014  0.11454910  0.80152958    -0.60800
O363        O  0.02229361  0.05035477  0.83826189    -0.52800
C364        C  0.03555294  0.09511547  0.83189607     0.72700
O365        O  0.04259898  0.10568087  0.68082684    -0.72200
O366        O  0.02235644  0.04014687  0.64739697    -0.50900
C367        C  0.03661758  0.08446082  0.65126621     0.74000
O368        O  0.43868700  0.05223564  0.80430509    -0.67500
O369        O  0.47287852  0.01674668  0.84051382    -0.54700
C370        C  0.44890801  0.04183130  0.83468575     0.72400
Zr371      Zr  0.45411914  0.03221011  0.74487643     2.77500
O372        O  0.43789727  0.12720088  0.74515297    -0.98300
O373        O  0.40356831  0.00025274  0.74263073    -0.79100
Zr374      Zr  0.03074109  0.08303727  0.74174138     2.70100
O375        O  0.01081201  0.17538653  0.73829074    -0.80400
O376        O  0.07995464  0.12204987  0.74342741    -0.99400
Zr377      Zr  0.00419402  0.97929415  0.80412835     2.21500
Zr378      Zr  0.00169117  0.97475658  0.68434839     2.11100
O379        O  0.98789506  0.05820708  0.71024099    -2.48100
O380        O  0.99066790  0.05085022  0.77030710    -0.80200
O381        O  0.46912826  0.95410119  0.71851105    -0.72400
O382        O  0.04730242  0.00745272  0.77544492    -2.33300
O383        O  0.46470164  0.95218344  0.77833464    -2.29500
O384        O  0.04077953  0.00191304  0.71600721    -0.74100
H385        H  0.02271572  0.86491774  0.69847820     0.77900
H386        H  0.06319586  0.01791347  0.79049929     0.79000
H387        H  0.98295210  0.08656927  0.69388596     0.81200
H388        H  0.44945375  0.94342361  0.79440850     0.78800
H389        H  0.11221864  0.98724991  0.74624805     0.41800
H390        H  0.09300273  0.09051697  0.73968084     0.40800
H391        H  0.99858320  0.17587834  0.71727404     0.40500
H392        H  0.44458161  0.14178785  0.76739158     0.38400
H393        H  0.40368351  0.96497440  0.75536861     0.41600
H394        H  0.42730317  0.80781093  0.74307249     0.36300
H395        H  0.51249671  0.77674980  0.73830787     0.42500
H396        H  0.08879547  0.82575976  0.75178702     0.38900
H397        H  0.45050168  0.14610210  0.72835008     0.43800
H398        H  0.41866389  0.86508499  0.72763048     0.42500
H399        H  0.05576042  0.81214374  0.75819504     0.42600
H400        H  0.08161709  0.14483937  0.72250039     0.43000
C401        C  0.42053724  0.23327015  0.99272398     0.85900
C402        C  0.42791301  0.20221616  0.96022753    -0.54300
C403        C  0.41772021  0.14957106  0.95890667     0.08800
C404        C  0.40266440  0.13016264  0.99226908     0.19800
C405        C  0.38653138  0.22485413  0.99638442    -0.55000
C406        C  0.37746314  0.17034138  0.99609633     0.08900
C407        C  0.43686392  0.19091903  0.51952005    -0.54600
C408        C  0.42627540  0.13854536  0.52198321     0.09500
H409        H  0.43968359  0.22078711  0.93918364     0.14000
H410        H  0.39506369  0.08689580  0.99144386    -0.00200
H411        H  0.37131543  0.25849736  0.99875358     0.14300
H412        H  0.45362837  0.20477361  0.53721501     0.14100
C413        C  0.08107194  0.75598472  0.99481312     0.85900
C414        C  0.06609251  0.79611567  0.96964004    -0.54300
C415        C  0.07890143  0.84664717  0.96682126     0.08800
C416        C  0.10194978  0.85644867  0.99503755     0.19800
C417        C  0.11478858  0.76113752  0.98719191    -0.55000
C418        C  0.12529889  0.81468285  0.98766242     0.08900
C419        C  0.07683822  0.78465048  0.52969645    -0.54600
C420        C  0.08720341  0.83708271  0.53072635     0.09500
H421        H  0.04909227  0.78356936  0.95172900     0.14000
H422        H  0.11064416  0.89890736  0.99626632    -0.00200
H423        H  0.12868472  0.72616747  0.98260871     0.14300
H424        H  0.06664458  0.76550474  0.55157630     0.14100
C425        C  0.08440402  0.25212843  0.98959708     0.85900
C426        C  0.07574789  0.23287345  0.52280215    -0.54300
C427        C  0.07886194  0.17776421  0.52501581     0.08800
C428        C  0.08869126  0.14464340  0.99221120     0.19800
C429        C  0.11549185  0.22932607  0.98037801    -0.55000
C430        C  0.11752301  0.17225490  0.98216786     0.08900
C431        C  0.06285376  0.22089699  0.96658159    -0.54600
C432        C  0.06589951  0.16580846  0.96606373     0.09500
H433        H  0.06720903  0.25539709  0.54410894     0.14000
H434        H  0.08948358  0.09912950  0.99371189    -0.00200
H435        H  0.13415398  0.25560664  0.97506742     0.14300
H436        H  0.04771622  0.24117070  0.94913685     0.14100
C437        C  0.00974622  0.55431282  0.48449099     0.01700
C438        C  0.47667539  0.54654220  0.48543715     0.01700
C439        C  0.46451823  0.49298528  0.48630653    -0.18800
C440        C  0.48202489  0.44523472  0.48856099     0.01700
C441        C  0.01410342  0.45350882  0.48659752     0.01700
C442        C  0.02658192  0.50632988  0.48533578    -0.18800
H443        H  0.05024999  0.51022131  0.48595175     0.03700
H444        H  0.44090913  0.48841544  0.48601477     0.03700
C445        C  0.03651860  0.40339795  0.98797350    -0.06700
C446        C  0.04567291  0.38073689  0.95711391    -0.17800
C447        C  0.06715717  0.33948396  0.95631656     0.10500
C448        C  0.07764744  0.31495037  0.98720531    -0.06600
C449        C  0.07269819  0.35077587  0.51593951    -0.17900
C450        C  0.05227638  0.39363385  0.51714255     0.10500
S451        S  0.07995462  0.31903373  0.91507303    -0.32800
S452        S  0.05018128  0.42946441  0.55716147    -0.32800
H453        H  0.02823102  0.46725519  0.54888181     0.28500
H454        H  0.10702207  0.29947361  0.92714022     0.28500
H455        H  0.03662277  0.39644826  0.93330696     0.19100
H456        H  0.08412465  0.33925701  0.53924211     0.19100
C457        C  0.06704736  0.69741980  0.99270165    -0.06700
C458        C  0.05667933  0.67874002  0.96067813    -0.17800
C459        C  0.03748484  0.63371449  0.95736283     0.10500
C460        C  0.02795648  0.60487790  0.98664495    -0.06600
C461        C  0.04169334  0.61881129  0.51742690    -0.17900
C462        C  0.06227176  0.66203492  0.51999953     0.10500
S463        S  0.02637106  0.61535506  0.91472239    -0.32800
S464        S  0.08502581  0.66242818  0.55790857    -0.32800
H465        H  0.10900074  0.68860739  0.54244580     0.28500
H466        H  0.02301870  0.55881724  0.92075251     0.28500
H467        H  0.06334923  0.69982630  0.93761635     0.19100
H468        H  0.03863215  0.59167973  0.53917890     0.19100
C469        C  0.43312452  0.29387271  0.99255089    -0.06700
C470        C  0.44852648  0.30998946  0.52171973    -0.17800
C471        C  0.46450302  0.35958629  0.52108457     0.10500
C472        C  0.46851633  0.39320556  0.98959319    -0.06600
C473        C  0.45140024  0.37602261  0.96162480    -0.17900
C474        C  0.43318029  0.32891819  0.96308516     0.10500
S475        S  0.48031193  0.38217313  0.56082685    -0.32800
S476        S  0.40939165  0.31909706  0.92682130    -0.32800
H477        H  0.38581226  0.29859604  0.94562100     0.28500
H478        H  0.97558953  0.44305744  0.55159635     0.28500
H479        H  0.44698425  0.28905050  0.54601165     0.19100
H480        H  0.45141074  0.40089804  0.93855638     0.19100
C481        C  0.43401040  0.06283434  0.62322494    -0.06700
C482        C  0.43212078  0.02948744  0.59403870    -0.17800
C483        C  0.42948534  0.05206586  0.56079601     0.10500
C484        C  0.42770903  0.10964778  0.55634334    -0.06600
C485        C  0.42699394  0.14215583  0.58600201    -0.17900
C486        C  0.43080199  0.11991399  0.61875720     0.10500
S487        S  0.43155754  0.00709960  0.52469918    -0.32800
S488        S  0.43524924  0.16750821  0.65318565    -0.32800
H489        H  0.46350583  0.14907267  0.66168787     0.28500
H490        H  0.43995354  0.96409379  0.03977307     0.28500
H491        H  0.43517139  0.98569930  0.59720013     0.19100
H492        H  0.42436955  0.18616884  0.58380743     0.19100
C493        C  0.43371280  0.06188225  0.86566607    -0.06700
C494        C  0.41915564  0.11217972  0.86424809    -0.17800
C495        C  0.41116185  0.13919025  0.89412023     0.10500
C496        C  0.41917061  0.11715194  0.92666885    -0.06600
C497        C  0.43104368  0.06448904  0.92799773    -0.17900
C498        C  0.43754277  0.03612083  0.89814868     0.10500
S499        S  0.39021817  0.20085281  0.88828431    -0.32800
S500        S  0.45064012  0.96700993  0.90354412    -0.32800
H501        H  0.93396306  0.94389544  0.87194651     0.28500
H502        H  0.37786688  0.20016778  0.92072252     0.28500
H503        H  0.41492267  0.13174021  0.83975769     0.19100
H504        H  0.43622048  0.04585198  0.95243216     0.19100
C505        C  0.04724433  0.10970648  0.61879134    -0.06700
C506        C  0.07208858  0.14374682  0.61925092    -0.17800
C507        C  0.08443356  0.16331566  0.58885240     0.10500
C508        C  0.07176645  0.14858974  0.55702688    -0.06600
C509        C  0.04763206  0.11375380  0.55633205    -0.17900
C510        C  0.03486406  0.09522296  0.58639025     0.10500
S511        S  0.11633853  0.20696867  0.59254652    -0.32800
S512        S  0.00148939  0.05665642  0.58063333    -0.32800
H513        H  0.49214120  0.09649081  0.61337801     0.28500
H514        H  0.12689279  0.19879246  0.55958872     0.28500
H515        H  0.08229742  0.15449509  0.64336449     0.19100
H516        H  0.03735299  0.10387546  0.53206043     0.19100
C517        C  0.05721888  0.13862027  0.93371314    -0.06700
C518        C  0.07932029  0.12190972  0.91172894    -0.17800
C519        C  0.07374216  0.11390829  0.87686591     0.10500
C520        C  0.04531696  0.12285671  0.86325405    -0.06600
C521        C  0.02302237  0.13761748  0.88568202    -0.17900
C522        C  0.02850706  0.14415589  0.92056999     0.10500
S523        S  0.10348572  0.08919068  0.85164489    -0.32800
S524        S  0.99788436  0.15797380  0.94756112    -0.32800
H525        H  0.01090991  0.13777638  0.97782000     0.28500
H526        H  0.09322342  0.11017406  0.82030732     0.28500
H527        H  0.10134030  0.11663068  0.92150049     0.19100
H528        H  0.00063832  0.14016187  0.87630397     0.19100
C529        C  0.08882203  0.86771699  0.56276458    -0.06700
C530        C  0.10144949  0.84231530  0.59166157    -0.17800
C531        C  0.09896134  0.86550234  0.62387812     0.10500
C532        C  0.08398524  0.91552785  0.62697087    -0.06600
C533        C  0.07563478  0.94461107  0.59728189    -0.17900
C534        C  0.07631933  0.91984573  0.56552289     0.10500
S535        S  0.11176519  0.82609922  0.66007977    -0.32800
S536        S  0.05532130  0.94990872  0.53108034    -0.32800
H537        H  0.05828929  0.00406543  0.54245369     0.28500
H538        H  0.12446296  0.87165144  0.67643486     0.28500
H539        H  0.11167470  0.80255390  0.58938828     0.19100
H540        H  0.06413608  0.98310516  0.59958833     0.19100
C541        C  0.08371244  0.90629207  0.86320062    -0.06700
C542        C  0.08603977  0.94375929  0.89004706    -0.17800
C543        C  0.08562898  0.92612664  0.92410914     0.10500
C544        C  0.08233233  0.86958867  0.93151117    -0.06600
C545        C  0.08375338  0.83227431  0.90418438    -0.17900
C546        C  0.08502526  0.85001162  0.87047985     0.10500
S547        S  0.08608772  0.97756772  0.95658408    -0.32800
S548        S  0.08458727  0.79881257  0.83774351    -0.32800
H549        H  0.10514633  0.82677453  0.81749698     0.28500
H550        H  0.10172560  0.01681979  0.93748741     0.28500
H551        H  0.08472565  0.98721444  0.88438662     0.19100
H552        H  0.08398281  0.78843809  0.90886115     0.19100
C553        C  0.46109774  0.59793077  0.98341639    -0.06700
C554        C  0.45208183  0.61936354  0.51816194    -0.17800
C555        C  0.43257267  0.66319522  0.52213389     0.10500
C556        C  0.42148837  0.68850992  0.98922539    -0.06600
C557        C  0.42689473  0.66448271  0.95749643    -0.17900
C558        C  0.44579312  0.61901371  0.95433235     0.10500
S559        S  0.42775945  0.69007900  0.56413237    -0.32800
S560        S  0.44996053  0.59196990  0.91207027    -0.32800
H561        H  0.46226393  0.54128948  0.92111665     0.28500
H562        H  0.45441214  0.67098951  0.57795689     0.28500
H563        H  0.46409682  0.60363975  0.54011352     0.19100
H564        H  0.41730753  0.68268848  0.93470905     0.19100
C565        C  0.43444846  0.82406017  0.56174042    -0.06700
C566        C  0.46494236  0.82831527  0.56433434    -0.17800
C567        C  0.47900183  0.83292192  0.59619228     0.10500
C568        C  0.46219609  0.83476574  0.62625615    -0.06600
C569        C  0.43212754  0.82542328  0.62397845    -0.17900
C570        C  0.41815818  0.81898574  0.59236628     0.10500
S571        S  0.51844746  0.83747329  0.59827512    -0.32800
S572        S  0.37981560  0.80204548  0.59382454    -0.32800
H573        H  0.38029732  0.76702960  0.56568230     0.28500
H574        H  0.52320482  0.83754307  0.56293050     0.28500
H575        H  0.47771239  0.82973055  0.54134369     0.19100
H576        H  0.41913660  0.82595054  0.64687981     0.19100
C577        C  0.45104162  0.81682338  0.93431774    -0.06700
C578        C  0.43685217  0.79346321  0.90578295    -0.17800
C579        C  0.44812030  0.79943507  0.87295268     0.10500
C580        C  0.47443717  0.82901828  0.86839701    -0.06600
C581        C  0.49088459  0.84376945  0.89778165    -0.17900
C582        C  0.47921375  0.83900842  0.93045592     0.10500
S583        S  0.42601499  0.77468312  0.83803717    -0.32800
S584        S  0.49892530  0.87015212  0.96526262    -0.32800
H585        H  0.49691421  0.82315389  0.98606952     0.28500
H586        H  0.44980925  0.75081186  0.82149857     0.28500
H587        H  0.41538027  0.77503058  0.90867151     0.19100
H588        H  0.51169194  0.86488737  0.89507938     0.19100
C589        C  0.14459742  0.13692777  0.98062629    -0.06700
C590        C  0.14949854  0.10865602  0.51197949    -0.17800
C591        C  0.17236992  0.07039166  0.51349606     0.10500
C592        C  0.19121178  0.05769239  0.98044460    -0.06600
C593        C  0.18604865  0.09378565  0.95251296    -0.17900
C594        C  0.16337663  0.13321866  0.95228439     0.10500
S595        S  0.17711692  0.03298155  0.55280277    -0.32800
S596        S  0.16028196  0.17705957  0.91504397    -0.32800
H597        H  0.13156329  0.19498029  0.91942689     0.28500
H598        H  0.20764290  0.04023974  0.55389344     0.28500
H599        H  0.13503775  0.11098694  0.53354173     0.19100
H600        H  0.20050548  0.09229822  0.93088749     0.19100
C601        C  0.19694890  0.92611124  0.98539869    -0.06700
C602        C  0.18381679  0.90870702  0.95475941    -0.17800
C603        C  0.16451675  0.86338179  0.95371651     0.10500
C604        C  0.15582273  0.83658347  0.98416058    -0.06600
C605        C  0.16781027  0.85733715  0.51627217    -0.17900
C606        C  0.18917431  0.89924812  0.51800375     0.10500
S607        S  0.15330989  0.83929149  0.91244567    -0.32800
S608        S  0.20880197  0.90511102  0.55817928    -0.32800
H609        H  0.22713249  0.94962891  0.55041413     0.28500
H610        H  0.14340325  0.78763403  0.92387392     0.28500
H611        H  0.18987885  0.92879634  0.93108688     0.19100
H612        H  0.16159908  0.83607528  0.53950896     0.19100
C613        C  0.35358053  0.86719397  0.98112725    -0.06700
C614        C  0.35173759  0.91490849  0.95998157    -0.17800
C615        C  0.32712149  0.94932213  0.95894586     0.10500
C616        C  0.30424690  0.94156558  0.98240078    -0.06600
C617        C  0.30388772  0.89631749  0.50856817    -0.15200
C618        C  0.32646938  0.85708957  0.50684723     0.10500
S619        S  0.32550236  0.99877225  0.92466566    -0.32800
S620        S  0.32436735  0.79709858  0.53400940    -0.32800
H621        H  0.29891167  0.81121677  0.55152206     0.28500
H622        H  0.29574317  0.98885422  0.91745548     0.28500
H623        H  0.36927323  0.92699083  0.94348839     0.19100
H624        H  0.28678877  0.89051876  0.52709478     0.19100
C625        C  0.34670025  0.14757808  0.99668790    -0.06700
C626        C  0.32913781  0.15114242  0.96712027    -0.17800
C627        C  0.30524424  0.11512745  0.96153226     0.10500
C628        C  0.29932711  0.07188929  0.98532663    -0.06600
C629        C  0.31677801  0.06892574  0.52037269    -0.17900
C630        C  0.34017802  0.10555588  0.52602401     0.10500
S631        S  0.28417526  0.12620205  0.92277511    -0.32800
S632        S  0.35756785  0.10349149  0.56730001    -0.32800
H633        H  0.36693077  0.15858604  0.56620982     0.28500
H634        H  0.27117993  0.07410854  0.92056443     0.28500
H635        H  0.33468533  0.18076005  0.94750040     0.19100
H636        H  0.31122258  0.03927335  0.54006741     0.19100
C637        C  0.77449238  0.97305703  0.48176861     0.01700
C638        C  0.77440396  0.03360493  0.97829056     0.01700
C639        C  0.74648950  0.05813698  0.97842994    -0.18800
C640        C  0.72014854  0.02772215  0.97915447     0.01700
C641        C  0.72021300  0.96626527  0.48295986     0.01700
C642        C  0.74817985  0.94236601  0.48157857    -0.18800
H643        H  0.74942638  0.89795267  0.48098239     0.03700
H644        H  0.74525792  0.10252954  0.97925709     0.03700
C645        C  0.88184407  0.83440212  0.48707159     0.85900
C646        C  0.90483345  0.84862281  0.46016955    -0.54300
C647        C  0.93128549  0.82435454  0.46491849     0.08800
C648        C  0.93334713  0.78940025  0.49771788     0.19800
C649        C  0.88189647  0.76942761  0.48686518    -0.55000
C650        C  0.90937983  0.74654970  0.49285363     0.08900
C651        C  0.89728335  0.84908696  0.01787933    -0.54600
C652        C  0.92308050  0.82376933  0.02519257     0.09500
H653        H  0.89958374  0.86646447  0.43549715     0.14000
H654        H  0.95534571  0.77126242  0.50186463    -0.00200
H655        H  0.86259878  0.74466397  0.48162031     0.14300
H656        H  0.88658120  0.87540024  0.03597762     0.14100
O657        O  0.97230127  0.83529334  0.30595041    -0.75900
O658        O  0.98811830  0.90411930  0.33997064    -0.54800
C659        C  0.97810639  0.85574440  0.33559839     0.77900
O660        O  0.58008851  0.91500342  0.18756340    -0.60500
O661        O  0.54253055  0.93845214  0.15239631    -0.53500
C662        C  0.56866245  0.92225160  0.15777115     0.69900
O663        O  0.57826422  0.90307806  0.30329035    -0.75000
O664        O  0.54526307  0.94080605  0.33867809    -0.55600
C665        C  0.56905835  0.91602539  0.33291898     0.75900
O666        O  0.96374903  0.83970633  0.18750707    -0.60200
O667        O  0.98506674  0.90021827  0.15083463    -0.53300
C668        C  0.97094410  0.85631062  0.15728923     0.72500
Zr669      Zr  0.97444766  0.87125810  0.24641386     2.54700
O670        O  0.98713649  0.77451275  0.24475107    -0.80700
O671        O  0.92278020  0.84776820  0.25129563    -0.94100
Zr672      Zr  0.56035468  0.92036961  0.24524564     2.64700
O673        O  0.57512458  0.82472396  0.24202255    -0.99100
O674        O  0.61149897  0.94814190  0.25118533    -0.81200
O675        O  0.51816709  0.89905543  0.27347811    -0.84500
O676        O  0.51854913  0.89033449  0.21370025    -2.19200
O677        O  0.93271562  0.05089003  0.18348367    -0.67900
O678        O  0.96425407  0.00828477  0.14844611    -0.52500
C679        C  0.94200837  0.03850235  0.15347740     0.70900
O680        O  0.54400954  0.10637365  0.30397452    -0.60800
O681        O  0.52473644  0.04180480  0.33961946    -0.52800
C682        C  0.53853972  0.08625059  0.33391840     0.72700
O683        O  0.54682805  0.10305296  0.18494712    -0.72200
O684        O  0.52639708  0.03937050  0.15001213    -0.50900
C685        C  0.54109130  0.08315883  0.15509803     0.74000
O686        O  0.93292194  0.05048967  0.30271816    -0.67500
O687        O  0.96715730  0.01551438  0.33910289    -0.54700
C688        C  0.94321621  0.04051243  0.33313632     0.72400
Zr689      Zr  0.94792340  0.02852986  0.24336403     2.77500
O690        O  0.92761203  0.12022040  0.24756713    -0.98300
O691        O  0.89866242  0.99027403  0.23963476    -0.79100
Zr692      Zr  0.53374011  0.07690115  0.24443167     2.70100
O693        O  0.51467451  0.16995083  0.24444405    -0.80400
O694        O  0.58377667  0.11190818  0.24599900    -0.99400
Zr695      Zr  0.50565742  0.97206991  0.30495632     2.21500
Zr696      Zr  0.50401300  0.97250815  0.18544592     2.11100
O697        O  0.49072812  0.05532731  0.21221036    -2.48100
O698        O  0.49305306  0.04511832  0.27196649    -0.80200
O699        O  0.96395458  0.95081834  0.21732528    -0.72400
O700        O  0.54919966  0.99960177  0.27705890    -2.33300
O701        O  0.95920427  0.94947741  0.27742965    -2.29500
O702        O  0.54330593  0.99661816  0.21752196    -0.74100
H703        H  0.52341676  0.86138162  0.19807464     0.77900
H704        H  0.56509839  0.00916569  0.29233177     0.79000
H705        H  0.48615768  0.08434348  0.19612608     0.81200
H706        H  0.94407846  0.94042223  0.29356522     0.78800
H707        H  0.62100309  0.93773648  0.22971959     0.41800
H708        H  0.59307133  0.09743200  0.22534157     0.40800
H709        H  0.49775001  0.16927996  0.22845527     0.40500
H710        H  0.93572745  0.14074932  0.22792821     0.38400
H711        H  0.89972349  0.95506382  0.25237672     0.41600
H712        H  0.92260043  0.80914344  0.25937548     0.36300
H713        H  0.96857664  0.75557953  0.23870368     0.42500
H714        H  0.56410823  0.80583584  0.26030066     0.38900
H715        H  0.90658048  0.11546581  0.24188116     0.43800
H716        H  0.91531338  0.84615185  0.22753119     0.42500
H717        H  0.56620421  0.81105552  0.22058278     0.42600
H718        H  0.58185400  0.15179732  0.24154765     0.43000
C719        C  0.91882662  0.23327226  0.49115702     0.85900
C720        C  0.92589905  0.20162044  0.45876330    -0.54300
C721        C  0.91559743  0.14898746  0.45789244     0.08800
C722        C  0.90106179  0.13010841  0.49164682     0.19800
C723        C  0.88484689  0.22472974  0.49536729    -0.55000
C724        C  0.87587398  0.17011637  0.49566377     0.08900
C725        C  0.93385865  0.19536270  0.01951412    -0.54600
C726        C  0.92334886  0.14290303  0.02164239     0.09500
H727        H  0.93744306  0.21976781  0.43742253     0.14000
H728        H  0.89344023  0.08687127  0.49114250    -0.00200
H729        H  0.86959505  0.25836852  0.49749380     0.14300
H730        H  0.94947603  0.20999866  0.03835710     0.14100
C731        C  0.57950522  0.75388064  0.49440389     0.85900
C732        C  0.56383886  0.79534708  0.47077331    -0.54300
C733        C  0.57697374  0.84537372  0.46798275     0.08800
C734        C  0.60052706  0.85412322  0.49570188     0.19800
C735        C  0.61315193  0.75938281  0.48585768    -0.55000
C736        C  0.62379036  0.81291726  0.48713152     0.08900
C737        C  0.58136698  0.78134963  0.02984438    -0.54600
C738        C  0.59197658  0.83352039  0.03028387     0.09500
H739        H  0.54630380  0.78424131  0.45323877     0.14000
H740        H  0.60909444  0.89670941  0.49714839    -0.00200
H741        H  0.62691770  0.72461463  0.48033765     0.14300
H742        H  0.57083640  0.76360076  0.05192779     0.14100
C743        C  0.58346563  0.25515310  0.48724435     0.85900
C744        C  0.57971597  0.22945940  0.02720247    -0.54300
C745        C  0.58297501  0.17426127  0.02890330     0.08800
C746        C  0.58966909  0.14830112  0.49314268     0.19800
C747        C  0.61512632  0.23355646  0.47919012    -0.55000
C748        C  0.61811720  0.17671499  0.48269788     0.08900
C749        C  0.56278539  0.22080966  0.46484211    -0.54600
C750        C  0.56690153  0.16597569  0.46617559     0.09500
H751        H  0.57236791  0.25173033  0.04921134     0.14000
H752        H  0.59116192  0.10298586  0.49597040    -0.00200
H753        H  0.63328698  0.26053681  0.47295778     0.14300
H754        H  0.54707814  0.23821755  0.44696532     0.14100
C755        C  0.51221711  0.55314168  0.98453212     0.01700
C756        C  0.98025527  0.54714498  0.98276188     0.01700
C757        C  0.96752509  0.49398439  0.98375431    -0.18800
C758        C  0.98447629  0.44548942  0.98627072     0.01700
C759        C  0.51610656  0.45233897  0.98792755     0.01700
C760        C  0.52883797  0.50486524  0.98594122    -0.18800
H761        H  0.55252528  0.50833447  0.98650406     0.03700
H762        H  0.94387729  0.49032749  0.98337936     0.03700
C763        C  0.53428479  0.40472680  0.48881983    -0.06700
C764        C  0.53991552  0.38000680  0.45745794    -0.17800
C765        C  0.56159545  0.33961708  0.45431241     0.10500
C766        C  0.57594179  0.31762584  0.48386678    -0.06600
C767        C  0.57342805  0.34801020  0.01887657    -0.17900
C768        C  0.55369355  0.39211351  0.01934522     0.10500
S769        S  0.57111111  0.32005884  0.41163028    -0.32800
S770        S  0.55223255  0.43009153  0.05864609    -0.32800
H771        H  0.52981446  0.46684696  0.05020141     0.28500
H772        H  0.59740895  0.29416356  0.42109308     0.28500
H773        H  0.52815712  0.39398144  0.43485152     0.19100
H774        H  0.58468004  0.33708696  0.04237119     0.19100
C775        C  0.56506454  0.69569238  0.49196093    -0.06700
C776        C  0.55113520  0.67979401  0.46105392    -0.17800
C777        C  0.53090918  0.63614569  0.45928604     0.10500
C778        C  0.52426532  0.60537163  0.48889410    -0.06600
C779        C  0.54277790  0.61836682  0.01801015    -0.17900
C780        C  0.56400462  0.66024499  0.02110593     0.10500
S781        S  0.51486327  0.62166097  0.41809344    -0.32800
S782        S  0.58545327  0.66008099  0.06004082    -0.32800
H783        H  0.61045215  0.68396153  0.04533298     0.28500
H784        H  0.51219002  0.56465287  0.42265264     0.28500
H785        H  0.55592271  0.70157903  0.43760850     0.19100
H786        H  0.53810398  0.59274064  0.04005521     0.19100
C787        C  0.93133450  0.29400192  0.49068479    -0.06700
C788        C  0.94603583  0.31475593  0.02015950    -0.17800
C789        C  0.96288365  0.36351009  0.01957605     0.10500
C790        C  0.96674041  0.39344676  0.48788944    -0.06600
C791        C  0.95012020  0.37572835  0.45965865    -0.17900
C792        C  0.93196836  0.32849757  0.46096731     0.10500
S793        S  0.97535054  0.38934044  0.06005947    -0.32800
S794        S  0.90876355  0.31828944  0.42427384    -0.32800
H795        H  0.88529508  0.29622989  0.44263972     0.28500
H796        H  0.47688671  0.44213773  0.05350636     0.28500
H797        H  0.94239812  0.29571362  0.04473115     0.19100
H798        H  0.95045586  0.40029894  0.43647168     0.19100
C799        C  0.92863192  0.06250151  0.12164027    -0.06700
C800        C  0.92956863  0.03103525  0.09163022    -0.17800
C801        C  0.92806551  0.05538937  0.05882680     0.10500
C802        C  0.92448067  0.11273739  0.05548814    -0.06600
C803        C  0.92120847  0.14332212  0.08559193    -0.17900
C804        C  0.92306499  0.11917996  0.11813755     0.10500
S805        S  0.93454419  0.01365627  0.02203577    -0.32800
S806        S  0.92092092  0.16415971  0.15401287    -0.32800
H807        H  0.90006226  0.13125865  0.17074361     0.28500
H808        H  0.93172326  0.96280689  0.53955094     0.28500
H809        H  0.93408559  0.98759873  0.09397519     0.19100
H810        H  0.91718677  0.18701252  0.08387896     0.19100
C811        C  0.92826181  0.06082643  0.36412645    -0.06700
C812        C  0.91488478  0.11220894  0.36313985    -0.17800
C813        C  0.90770222  0.13922790  0.39326477     0.10500
C814        C  0.91586703  0.11649140  0.42558437    -0.06600
C815        C  0.92635333  0.06272764  0.42651520    -0.17900
C816        C  0.93167645  0.03415128  0.39638176     0.10500
S817        S  0.88703910  0.20127153  0.38804924    -0.32800
S818        S  0.94283957  0.96363809  0.40097247    -0.32800
H819        H  0.43519327  0.94118155  0.37389836     0.28500
H820        H  0.87507745  0.20015102  0.42067051     0.28500
H821        H  0.91085563  0.13240275  0.33880034     0.19100
H822        H  0.93129670  0.04328651  0.45078638     0.19100
C823        C  0.55200763  0.11001671  0.12353498    -0.06700
C824        C  0.58080706  0.13001912  0.12207154    -0.17800
C825        C  0.59269000  0.14840761  0.09104431     0.10500
C826        C  0.57571991  0.14452217  0.06057134    -0.06600
C827        C  0.54752278  0.12302796  0.06195255    -0.17900
C828        C  0.53523238  0.10796622  0.09288266     0.10500
S829        S  0.62959988  0.17532409  0.09251157    -0.32800
S830        S  0.49705599  0.09101296  0.09147158    -0.32800
H831        H  0.98861436  0.10103400  0.11353265     0.28500
H832        H  0.63145692  0.19503476  0.05893862     0.28500
H833        H  0.59419831  0.13080175  0.14506061     0.19100
H834        H  0.53403101  0.12224635  0.03899224     0.19100
C835        C  0.55904877  0.13525010  0.43499580    -0.06700
C836        C  0.58165347  0.11931747  0.41345649    -0.17800
C837        C  0.57631654  0.10828586  0.37893881     0.10500
C838        C  0.54765297  0.11379517  0.36539474    -0.06600
C839        C  0.52490746  0.12726334  0.38747729    -0.17900
C840        C  0.53018561  0.13655720  0.42203630     0.10500
S841        S  0.60665461  0.08438520  0.35432970    -0.32800
S842        S  0.49920562  0.14892194  0.44876238    -0.32800
H843        H  0.51299319  0.13270490  0.47947147     0.28500
H844        H  0.59631163  0.10355903  0.32260448     0.28500
H845        H  0.60378483  0.11689728  0.42329471     0.19100
H846        H  0.50247844  0.12719474  0.37808150     0.19100
C847        C  0.59289223  0.86529683  0.06186913    -0.06700
C848        C  0.60725252  0.84283685  0.09062586    -0.17800
C849        C  0.60325112  0.86478239  0.12300927     0.10500
C850        C  0.58491432  0.91068231  0.12636789    -0.06600
C851        C  0.57473382  0.93787781  0.09667706    -0.17900
C852        C  0.57680438  0.91374218  0.06484600     0.10500
S853        S  0.61956719  0.82935109  0.15886059    -0.32800
S854        S  0.55411293  0.93902150  0.03019522    -0.32800
H855        H  0.53967383  0.98019409  0.04819179     0.28500
H856        H  0.62962544  0.87789594  0.17428239     0.28500
H857        H  0.62003523  0.80583884  0.08810843     0.19100
H858        H  0.56151660  0.97432154  0.09901653     0.19100
C859        C  0.58473099  0.89921963  0.36375996    -0.06700
C860        C  0.58654103  0.93811974  0.38989928    -0.17800
C861        C  0.58463080  0.92234714  0.42416397     0.10500
C862        C  0.58116760  0.86630499  0.43244947    -0.06600
C863        C  0.58331819  0.82747244  0.40600908    -0.17900
C864        C  0.58542926  0.84334868  0.37210156     0.10500
S865        S  0.58312713  0.97518519  0.45565236    -0.32800
S866        S  0.58496470  0.79046691  0.34040798    -0.32800
H867        H  0.60531146  0.81742554  0.31938308     0.28500
H868        H  0.59867538  0.01450016  0.43656016     0.28500
H869        H  0.58543584  0.98127479  0.38330316     0.19100
H870        H  0.58332511  0.78387535  0.41153905     0.19100
C871        C  0.95847930  0.59781789  0.48401975    -0.06700
C872        C  0.95344274  0.61837164  0.01475168    -0.17800
C873        C  0.93420977  0.66300782  0.01765630     0.10500
C874        C  0.91892677  0.68758218  0.49167544    -0.06600
C875        C  0.92294419  0.66321090  0.45978649    -0.17900
C876        C  0.94194476  0.61825183  0.45567875     0.10500
S877        S  0.92619775  0.68736124  0.05954011    -0.32800
S878        S  0.94427374  0.59085490  0.41323580    -0.32800
H879        H  0.96409193  0.54836565  0.41989304     0.28500
H880        H  0.95075466  0.66436978  0.07613854     0.28500
H881        H  0.96318386  0.60027774  0.03750462     0.19100
H882        H  0.91231693  0.68101331  0.43751178     0.19100
C883        C  0.93566830  0.82112847  0.06054304    -0.06700
C884        C  0.96615569  0.82262180  0.06494238    -0.17800
C885        C  0.97886422  0.82495333  0.09765930     0.10500
C886        C  0.96074644  0.82760287  0.12655967    -0.06600
C887        C  0.93073647  0.82000304  0.12251044    -0.17900
C888        C  0.91806211  0.81563487  0.09013088     0.10500
S889        S  0.01822559  0.82678055  0.10251288    -0.32800
S890        S  0.87952955  0.80078546  0.08943903    -0.32800
H891        H  0.88083800  0.76636981  0.06107839     0.28500
H892        H  0.02452963  0.83256097  0.06767802     0.28500
H893        H  0.98000330  0.82405882  0.04280513     0.19100
H894        H  0.91678443  0.82100145  0.14461951     0.19100
C895        C  0.94918194  0.81456805  0.43426191    -0.06700
C896        C  0.93552879  0.78884899  0.40617284    -0.17800
C897        C  0.94685753  0.79366376  0.37327485     0.10500
C898        C  0.97236223  0.82537118  0.36812696    -0.06600
C899        C  0.98863386  0.84208657  0.39723489    -0.17900
C900        C  0.97695040  0.83853336  0.43002316     0.10500
S901        S  0.92609658  0.76362261  0.33890404    -0.32800
S902        S  0.99694103  0.87116244  0.46431663    -0.32800
H903        H  0.97267919  0.88900912  0.48265018     0.28500
H904        H  0.95098448  0.74387055  0.32241283     0.28500
H905        H  0.91447165  0.76896389  0.40940112     0.19100
H906        H  0.00901924  0.86443917  0.39403481     0.19100
C907        C  0.64544224  0.14175974  0.48156053    -0.06700
C908        C  0.65170444  0.10376801  0.00892256    -0.17800
C909        C  0.67441621  0.06526828  0.00819199     0.10500
C910        C  0.69040637  0.05888642  0.48092102    -0.06600
C911        C  0.68545373  0.09484077  0.45285563    -0.17900
C912        C  0.66355418  0.13582771  0.45277163     0.10500
S913        S  0.68053587  0.02553479  0.04632130    -0.32800
S914        S  0.66058168  0.17863462  0.41505735    -0.32800
H915        H  0.63212159  0.19782624  0.41953144     0.28500
H916        H  0.71089780  0.03508201  0.04672056     0.28500
H917        H  0.63809710  0.10451732  0.03126287     0.19100
H918        H  0.69946574  0.09186520  0.43090617     0.19100
C919        C  0.69516268  0.92588978  0.48500364    -0.06700
C920        C  0.68205904  0.90822312  0.45436894    -0.17800
C921        C  0.66301324  0.86240267  0.45329827     0.10500
C922        C  0.65431713  0.83544203  0.48369075    -0.06600
C923        C  0.67263134  0.85213615  0.01216075    -0.17900
C924        C  0.69359747  0.89472905  0.01259472     0.10500
S925        S  0.65260563  0.83721659  0.41204695    -0.32800
S926        S  0.71522368  0.90050026  0.05138345    -0.32800
H927        H  0.73197287  0.94692751  0.04313482     0.28500
H928        H  0.64357929  0.78508541  0.42365433     0.28500
H929        H  0.68812192  0.92825190  0.43067964     0.19100
H930        H  0.66761241  0.83070975  0.03574409     0.19100
C931        C  0.85231361  0.86675020  0.48297176    -0.06700
C932        C  0.84961199  0.91182469  0.45975718    -0.17800
C933        C  0.82491393  0.94604088  0.45827073     0.10500
C934        C  0.80262773  0.94031972  0.48262272    -0.06600
C935        C  0.80681723  0.89753766  0.00214398    -0.15200
C936        C  0.83004020  0.85951971  0.00144974     0.10500
S937        S  0.82253288  0.99335306  0.42284139    -0.32800
S938        S  0.82764448  0.79978727  0.02860702    -0.32800
H939        H  0.80846422  0.82227784  0.05238522     0.28500
H940        H  0.79246363  0.98438831  0.41714200     0.28500
H941        H  0.86653237  0.92215983  0.44204118     0.19100
H942        H  0.78949248  0.89118559  0.02033648     0.19100
C943        C  0.84522107  0.14680950  0.49656050    -0.06700
C944        C  0.82744847  0.15037568  0.46717207    -0.17800
C945        C  0.80391467  0.11362654  0.46144622     0.10500
C946        C  0.79834772  0.07003242  0.48507463    -0.06600
C947        C  0.81629602  0.06845982  0.01285138    -0.17900
C948        C  0.83831908  0.10687402  0.02050419     0.10500
S949        S  0.78267119  0.12450798  0.42280694    -0.32800
S950        S  0.85412247  0.10358613  0.06255249    -0.32800
H951        H  0.86216325  0.15939238  0.06308166     0.28500
H952        H  0.76997188  0.07216265  0.42055130     0.28500
H953        H  0.83256286  0.18060109  0.44775715     0.19100
H954        H  0.81085585  0.03717731  0.03161061     0.19100
C955        C  0.77635592  0.97498340  0.97810804     0.01700
C956        C  0.77250403  0.03168225  0.48195874     0.01700
C957        C  0.74449335  0.05580086  0.48191541    -0.18800
C958        C  0.71815837  0.02511172  0.48186657     0.01700
C959        C  0.72223054  0.96901008  0.98042617     0.01700
C960        C  0.75001162  0.94470107  0.97826726    -0.18800
H961        H  0.75108583  0.90027268  0.97758653     0.03700
H962        H  0.74315434  0.10018881  0.48262550     0.03700
C963        C  0.88332979  0.83459697  0.98343966     0.85900
C964        C  0.90695158  0.84990443  0.95751867    -0.54300
C965        C  0.93338099  0.82570389  0.96286648     0.08800
C966        C  0.93480216  0.78998609  0.99536619     0.19800
C967        C  0.88373328  0.76947029  0.98267607    -0.55000
C968        C  0.91124620  0.74675350  0.98927819     0.08900
C969        C  0.89668088  0.84963753  0.52089941    -0.54600
C970        C  0.92253914  0.82406393  0.52763783     0.09500
H971        H  0.90220777  0.86820724  0.93284701     0.14000
H972        H  0.95680858  0.77223396  0.00016100    -0.00200
H973        H  0.86462192  0.74456419  0.97679978     0.14300
H974        H  0.88651733  0.87668054  0.53899952     0.14100
O975        O  0.97532646  0.83539749  0.80544234    -0.75900
O976        O  0.99073757  0.90423401  0.83969019    -0.54800
C977        C  0.98130193  0.85549382  0.83504351     0.77900
O978        O  0.58336139  0.91160855  0.68892142    -0.60500
O979        O  0.54714854  0.94070837  0.65339849    -0.53500
C980        C  0.57257657  0.92101366  0.65901858     0.69900
O981        O  0.58098236  0.90539001  0.80434275    -0.75000
O982        O  0.54842409  0.94543366  0.83933594    -0.55600
C983        C  0.57181120  0.91908906  0.83385848     0.75900
O984        O  0.96638624  0.83807709  0.68847752    -0.60200
O985        O  0.98566702  0.89991888  0.65112859    -0.53300
C986        C  0.97278630  0.85485471  0.65812051     0.72500
Zr987      Zr  0.97549818  0.87275770  0.74663606     2.54700
O988        O  0.98574164  0.77489136  0.74594606    -0.80700
O989        O  0.92329019  0.85348491  0.75056089    -0.94100
Zr990      Zr  0.56321947  0.92155403  0.74609372     2.64700
O991        O  0.57356080  0.82370991  0.74574014    -0.99100
O992        O  0.61529947  0.94290766  0.74785845    -0.81200
O993        O  0.52040277  0.90457101  0.77377059    -0.84500
O994        O  0.52144930  0.89227775  0.71410010    -2.19200
O995        O  0.93180475  0.05133855  0.68375460    -0.67900
O996        O  0.96278255  0.00760391  0.64855638    -0.52500
C997        C  0.94088972  0.03860749  0.65366856     0.70900
O998        O  0.54759383  0.11222975  0.80343122    -0.60800
O999        O  0.52906637  0.04789832  0.83979501    -0.52800
C1000       C  0.54232577  0.09279163  0.83364343     0.72700
O1001       O  0.54948148  0.10649748  0.68366040    -0.72200
O1002       O  0.52973530  0.04064458  0.65001518    -0.50900
C1003       C  0.54337775  0.08562208  0.65410977     0.74000
O1004       O  0.93232614  0.04854798  0.80343330    -0.67500
O1005       O  0.96717895  0.01439546  0.83936040    -0.54700
C1006       C  0.94289745  0.03833692  0.83372102     0.72400
Zr1007     Zr  0.94733389  0.02890979  0.74372169     2.77500
O1008       O  0.92833290  0.12177180  0.74655223    -0.98300
O1009       O  0.89786711  0.99162984  0.74006282    -0.79100
Zr1010     Zr  0.53888380  0.07976509  0.74394941     2.70100
O1011       O  0.52526645  0.17611544  0.74177789    -0.80400
O1012       O  0.59028522  0.10650463  0.74587742    -0.99400
Zr1013     Zr  0.50930641  0.97844172  0.80523069     2.21500
Zr1014     Zr  0.50798876  0.97473815  0.68578380     2.11100
O1015       O  0.49561621  0.05860589  0.71207544    -2.48100
O1016       O  0.49763257  0.05150353  0.77188353    -0.80200
O1017       O  0.96348792  0.95142359  0.71746766    -0.72400
O1018       O  0.55336760  0.00247279  0.77721040    -2.33300
O1019       O  0.95984318  0.95034116  0.77783521    -2.29500
O1020       O  0.54745235  0.99826225  0.71775609    -0.74100
H1021       H  0.52604497  0.86286684  0.69870438     0.77900
H1022       H  0.56932767  0.01186073  0.79255168     0.79000
H1023       H  0.49123158  0.08730775  0.69587262     0.81200
H1024       H  0.94492532  0.94053529  0.79411041     0.78800
H1025       H  0.61633386  0.98226526  0.75372149     0.41800
H1026       H  0.59978065  0.08261567  0.72912214     0.40800
H1027       H  0.50979761  0.17831037  0.72392767     0.40500
H1028       H  0.94140495  0.14380989  0.73177853     0.38400
H1029       H  0.89687875  0.96420261  0.75881421     0.41600
H1030       H  0.92202570  0.81447639  0.75770761     0.36300
H1031       H  0.96658342  0.75687094  0.74985799     0.42500
H1032       H  0.59431050  0.82104810  0.75310605     0.38900
H1033       H  0.90947716  0.12031864  0.73385558     0.43800
H1034       H  0.91603015  0.85399737  0.72667628     0.42500
H1035       H  0.56240206  0.80832963  0.76509813     0.42600
H1036       H  0.59078542  0.14358601  0.73533072     0.43000
C1037       C  0.92030496  0.23184494  0.99102941     0.85900
C1038       C  0.92702917  0.19963507  0.95871199    -0.54300
C1039       C  0.91636084  0.14728742  0.95818701     0.08800
C1040       C  0.90191747  0.12918635  0.99204435     0.19800
C1041       C  0.88637578  0.22432705  0.99543190    -0.55000
C1042       C  0.87707689  0.17001520  0.99603474     0.08900
C1043       C  0.93248658  0.19663892  0.51953791    -0.54600
C1044       C  0.92221110  0.14401731  0.52159158     0.09500
H1045       H  0.93868497  0.21698511  0.93722639     0.14000
H1046       H  0.89413073  0.08598885  0.99185401    -0.00200
H1047       H  0.87135913  0.25840426  0.99721857     0.14300
H1048       H  0.94821505  0.21098591  0.53829649     0.14100
C1049       C  0.58407126  0.75332172  0.99540599     0.85900
C1050       C  0.56732379  0.79372542  0.97199311    -0.54300
C1051       C  0.57959341  0.84457224  0.96882030     0.08800
C1052       C  0.60351697  0.85458441  0.99591154     0.19800
C1053       C  0.61735969  0.76044839  0.98597834    -0.55000
C1054       C  0.62716498  0.81442600  0.98683373     0.08900
C1055       C  0.57662611  0.78185018  0.52883341    -0.54600
C1056       C  0.58822662  0.83332474  0.52987348     0.09500
H1057       H  0.54973366  0.78099382  0.95489989     0.14000
H1058       H  0.61154950  0.89748043  0.99731714    -0.00200
H1059       H  0.63152316  0.72640217  0.98012430     0.14300
H1060       H  0.56605241  0.76364703  0.55078849     0.14100
C1061       C  0.58534264  0.25490528  0.99193299     0.85900
C1062       C  0.57766035  0.23196523  0.52302772    -0.54300
C1063       C  0.58155413  0.17720623  0.52636687     0.08800
C1064       C  0.59060006  0.14769823  0.99464371     0.19800
C1065       C  0.61664215  0.23322931  0.98286767    -0.55000
C1066       C  0.61919140  0.17631558  0.98468096     0.08900
C1067       C  0.56414064  0.22294371  0.96888362    -0.54600
C1068       C  0.56775858  0.16800441  0.96826870     0.09500
H1069       H  0.56983662  0.25560158  0.54426497     0.14000
H1070       H  0.59178659  0.10222039  0.99615568    -0.00200
H1071       H  0.63500329  0.26013271  0.97732254     0.14300
H1072       H  0.54889970  0.24274570  0.95139385     0.14100
C1073       C  0.50777211  0.55209981  0.48747219     0.01700
C1074       C  0.97863764  0.54942606  0.48258813     0.01700
C1075       C  0.96596277  0.49619144  0.48314912    -0.18800
C1076       C  0.98293732  0.44778796  0.48567783     0.01700
C1077       C  0.51308076  0.45144786  0.48928794     0.01700
C1078       C  0.52508745  0.50458547  0.48845026    -0.18800
H1079       H  0.54872114  0.50911135  0.48887811     0.03700
H1080       H  0.94231618  0.49244249  0.48272049     0.03700
C1081       C  0.53695097  0.40522460  0.98963373    -0.06700
C1082       C  0.54554926  0.38156202  0.95891205    -0.17800
C1083       C  0.56732890  0.34103347  0.95814948     0.10500
C1084       C  0.57825401  0.31742164  0.98912520    -0.06600
C1085       C  0.57388074  0.34940073  0.51364180    -0.17900
C1086       C  0.55354899  0.39226116  0.51650875     0.10500
S1087       S  0.57984201  0.32030986  0.91682258    -0.32800
S1088       S  0.55384427  0.42831686  0.55655788    -0.32800
H1089       H  0.52905613  0.46095354  0.55149636     0.28500
H1090       H  0.60693538  0.30059048  0.92866973     0.28500
H1091       H  0.53600818  0.39629981  0.93511902     0.19100
H1092       H  0.58724161  0.33904897  0.53573930     0.19100
C1093       C  0.57054660  0.69461917  0.99267268    -0.06700
C1094       C  0.55967585  0.67717545  0.96060908    -0.17800
C1095       C  0.53936210  0.63391008  0.95722309     0.10500
C1096       C  0.52938067  0.60559586  0.98654922    -0.06600
C1097       C  0.54018318  0.61717995  0.51891344    -0.17900
C1098       C  0.56108379  0.65988024  0.52043110     0.10500
S1099       S  0.52751708  0.61749160  0.91444715    -0.32800
S1100       S  0.58455345  0.66061205  0.55776195    -0.32800
H1101       H  0.60850073  0.68539326  0.54144769     0.28500
H1102       H  0.51747716  0.56390027  0.92068175     0.28500
H1103       H  0.56639156  0.69866820  0.93770827     0.19100
H1104       H  0.53759376  0.59044062  0.54094259     0.19100
C1105       C  0.93293417  0.29220911  0.99044990    -0.06700
C1106       C  0.94598540  0.31549500  0.51978673    -0.17800
C1107       C  0.96314523  0.36386875  0.51878151     0.10500
C1108       C  0.96829010  0.39131171  0.98841102    -0.06600
C1109       C  0.95335116  0.37219441  0.95935557    -0.17900
C1110       C  0.93491074  0.32547112  0.96034517     0.10500
S1111       S  0.97857582  0.38671204  0.55861327    -0.32800
S1112       S  0.91230480  0.31536055  0.92312905    -0.32800
H1113       H  0.88821349  0.29517906  0.94127168     0.28500
H1114       H  0.47576160  0.43841941  0.55474643     0.28500
H1115       H  0.94345636  0.29599063  0.54438751     0.19100
H1116       H  0.95488662  0.39573564  0.93584385     0.19100
C1117       C  0.92793926  0.06349564  0.62182779    -0.06700
C1118       C  0.92803397  0.03200772  0.59181656    -0.17800
C1119       C  0.92622137  0.05627078  0.55900607     0.10500
C1120       C  0.92349118  0.11381606  0.55559717    -0.06600
C1121       C  0.92105857  0.14460581  0.58583905    -0.17900
C1122       C  0.92326875  0.12045592  0.61852433     0.10500
S1123       S  0.93070838  0.01358697  0.52219586    -0.32800
S1124       S  0.92268854  0.16393036  0.65549205    -0.32800
H1125       H  0.91337664  0.21203542  0.63857290     0.28500
H1126       H  0.93942508  0.96378811  0.03953213     0.28500
H1127       H  0.93189390  0.98834117  0.59412892     0.19100
H1128       H  0.91763175  0.18839051  0.58393377     0.19100
C1129       C  0.92803281  0.05774801  0.86495251    -0.06700
C1130       C  0.91372076  0.10821016  0.86390514    -0.17800
C1131       C  0.90715569  0.13596405  0.89393712     0.10500
C1132       C  0.91625547  0.11426816  0.92618698    -0.06600
C1133       C  0.92762282  0.06120707  0.92732836    -0.17900
C1134       C  0.93289438  0.03227513  0.89736881     0.10500
S1135       S  0.88677326  0.19833320  0.88856683    -0.32800
S1136       S  0.94644075  0.96334928  0.90252540    -0.32800
H1137       H  0.43846905  0.94789587  0.87271568     0.28500
H1138       H  0.87624497  0.19958772  0.92178393     0.28500
H1139       H  0.90886261  0.12759404  0.83951183     0.19100
H1140       H  0.93358214  0.04286607  0.95161152     0.19100
C1141       C  0.55278896  0.11220199  0.62171572    -0.06700
C1142       C  0.57829175  0.14443095  0.62097135    -0.17800
C1143       C  0.58961157  0.16353717  0.58990589     0.10500
C1144       C  0.57535777  0.14943800  0.55888763    -0.06600
C1145       C  0.55046801  0.11670695  0.55948418    -0.17900
C1146       C  0.53851780  0.09963731  0.59014073     0.10500
S1147       S  0.62233617  0.20526910  0.59164425    -0.32800
S1148       S  0.50354077  0.06614303  0.58644672    -0.32800
H1149       H  0.98680442  0.08746433  0.60507806     0.28500
H1150       H  0.63076100  0.19821897  0.55772691     0.28500
H1151       H  0.58978552  0.15387346  0.64453193     0.19100
H1152       H  0.53892463  0.10774930  0.53583121     0.19100
C1153       C  0.56014146  0.14090064  0.93549108    -0.06700
C1154       C  0.58294663  0.12194552  0.91520590    -0.17800
C1155       C  0.57880464  0.11265199  0.88024565     0.10500
C1156       C  0.55106452  0.12164078  0.86492721    -0.06600
C1157       C  0.52805462  0.13889706  0.88550947    -0.17900
C1158       C  0.53211731  0.14755171  0.92041897     0.10500
S1159       S  0.60946865  0.08725505  0.85687004    -0.32800
S1160       S  0.50047695  0.16568198  0.94474154    -0.32800
H1161       H  0.51149021  0.14684901  0.97637136     0.28500
H1162       H  0.60063863  0.10915860  0.82515370     0.28500
H1163       H  0.60445910  0.11605902  0.92630775     0.19100
H1164       H  0.50616593  0.14207148  0.87468243     0.19100
C1165       C  0.59153793  0.86281490  0.56232387    -0.06700
C1166       C  0.60430214  0.83543469  0.59050602    -0.17800
C1167       C  0.60287551  0.85735301  0.62326844     0.10500
C1168       C  0.58862699  0.90787828  0.62769328    -0.06600
C1169       C  0.58070856  0.93899143  0.59859870    -0.17900
C1170       C  0.58033352  0.91573084  0.56634924     0.10500
S1171       S  0.61695813  0.81682422  0.65830517    -0.32800
S1172       S  0.55944487  0.94902024  0.53300325    -0.32800
H1173       H  0.56194857  0.00221460  0.54624362     0.28500
H1174       H  0.62953263  0.86210440  0.67508361     0.28500
H1175       H  0.61386667  0.79529106  0.58724478     0.19100
H1176       H  0.57026535  0.97836467  0.60176348     0.19100
C1177       C  0.58684229  0.90091024  0.86486713    -0.06700
C1178       C  0.58901238  0.93909977  0.89136689    -0.17800
C1179       C  0.58689200  0.92263610  0.92551281     0.10500
C1180       C  0.58270297  0.86646274  0.93332060    -0.06600
C1181       C  0.58410541  0.82826084  0.90645453    -0.17900
C1182       C  0.58666593  0.84484578  0.87273601     0.10500
S1183       S  0.58631822  0.97505024  0.95744220    -0.32800
S1184       S  0.58654652  0.79264387  0.84063559    -0.32800
H1185       H  0.60794239  0.81919375  0.82085760     0.28500
H1186       H  0.60197018  0.01435390  0.93841749     0.28500
H1187       H  0.58864948  0.98243894  0.88512144     0.19100
H1188       H  0.58374072  0.78455616  0.91146466     0.19100
C1189       C  0.96025171  0.59609368  0.98310279    -0.06700
C1190       C  0.95314380  0.62008833  0.51607130    -0.17800
C1191       C  0.93351343  0.66369963  0.52021511     0.10500
C1192       C  0.92120425  0.68770982  0.98831713    -0.06600
C1193       C  0.92699104  0.66374834  0.95665246    -0.17900
C1194       C  0.94574180  0.61801898  0.95371637     0.10500
S1195       S  0.92698346  0.68796612  0.56254345    -0.32800
S1196       S  0.95045923  0.59147977  0.91138420    -0.32800
H1197       H  0.96690870  0.54484183  0.91976783     0.28500
H1198       H  0.95136313  0.66304616  0.57836873     0.28500
H1199       H  0.96427741  0.60263174  0.53814192     0.19100
H1200       H  0.91783600  0.68220688  0.93372735     0.19100
C1201       C  0.93577258  0.82123086  0.56270291    -0.06700
C1202       C  0.96637117  0.82030500  0.56639244    -0.17800
C1203       C  0.97969512  0.82145361  0.59884619     0.10500
C1204       C  0.96215334  0.82533870  0.62806359    -0.06600
C1205       C  0.93199518  0.81993288  0.62474212    -0.17900
C1206       C  0.91864213  0.81701517  0.59273851     0.10500
S1207       S  0.01905740  0.81999175  0.60310761    -0.32800
S1208       S  0.87984546  0.80548463  0.59319348    -0.32800
H1209       H  0.88039620  0.76796340  0.56632517     0.28500
H1210       H  0.02488859  0.82317684  0.56806397     0.28500
H1211       H  0.97985543  0.82070788  0.54395085     0.19100
H1212       H  0.91848184  0.82199658  0.64719531     0.19100
C1213       C  0.95155963  0.81539915  0.93254947    -0.06700
C1214       C  0.93807009  0.78964184  0.90439262    -0.17800
C1215       C  0.94997180  0.79338286  0.87180888     0.10500
C1216       C  0.97584176  0.82415498  0.86709608    -0.06600
C1217       C  0.99198746  0.84043184  0.89633200    -0.17900
C1218       C  0.97969945  0.83809407  0.92882316     0.10500
S1219       S  0.92924529  0.76411237  0.83710425    -0.32800
S1220       S  0.99932337  0.87117437  0.96320367    -0.32800
H1221       H  0.97480336  0.89092621  0.98029671     0.28500
H1222       H  0.95409200  0.74358541  0.82089034     0.28500
H1223       H  0.91672042  0.77072787  0.90724290     0.19100
H1224       H  0.01258087  0.86218197  0.89332725     0.19100
C1225       C  0.64641145  0.14170012  0.98219646    -0.06700
C1226       C  0.65053994  0.10581366  0.50947838    -0.17800
C1227       C  0.67285005  0.06627186  0.50985525     0.10500
C1228       C  0.69233126  0.06129674  0.97927925    -0.06600
C1229       C  0.68707682  0.09920551  0.95227444    -0.17900
C1230       C  0.66459709  0.13894912  0.95329009     0.10500
S1231       S  0.67889770  0.02944837  0.54917086    -0.32800
S1232       S  0.66065590  0.18395331  0.91667392    -0.32800
H1233       H  0.63156663  0.19950816  0.92136023     0.28500
H1234       H  0.70950993  0.03484942  0.54836104     0.28500
H1235       H  0.63709291  0.10900680  0.53187037     0.19100
H1236       H  0.70112310  0.09849675  0.93026144     0.19100
C1237       C  0.69728663  0.92907901  0.98326554    -0.06700
C1238       C  0.68288854  0.91330172  0.95308419    -0.17800
C1239       C  0.66437967  0.86691626  0.95206309     0.10500
C1240       C  0.65722167  0.83803220  0.98233107    -0.06600
C1241       C  0.66868006  0.85096952  0.51397884    -0.17900
C1242       C  0.68991500  0.89322876  0.51474023     0.10500
S1243       S  0.65324903  0.84291857  0.91081210    -0.32800
S1244       S  0.70968272  0.90088534  0.55467097    -0.32800
H1245       H  0.72866352  0.94378946  0.54572696     0.28500
H1246       H  0.64508072  0.79004321  0.92196935     0.28500
H1247       H  0.68781755  0.93485251  0.92952206     0.19100
H1248       H  0.66252638  0.83106027  0.53768668     0.19100
C1249       C  0.85377246  0.86708140  0.97881305    -0.06700
C1250       C  0.85111549  0.91213177  0.95549603    -0.17800
C1251       C  0.82656069  0.94695395  0.95424297     0.10500
C1252       C  0.80441336  0.94180624  0.97882302    -0.06600
C1253       C  0.80515793  0.89627008  0.50607711    -0.15200
C1254       C  0.82861936  0.85873535  0.50563435     0.10500
S1255       S  0.82396642  0.99420665  0.91878820    -0.32800
S1256       S  0.82696904  0.79954274  0.53345829    -0.32800
H1257       H  0.80120499  0.81307997  0.55054288     0.28500
H1258       H  0.79387835  0.98505577  0.91324238     0.28500
H1259       H  0.86787234  0.92178844  0.93743580     0.19100
H1260       H  0.78787786  0.89014481  0.52433676     0.19100
C1261       C  0.84632973  0.14783936  0.99642881    -0.06700
C1262       C  0.82877385  0.15348139  0.96700782    -0.17800
C1263       C  0.80568382  0.11655076  0.95987121     0.10500
C1264       C  0.80014400  0.07147058  0.98234949    -0.06600
C1265       C  0.81502579  0.06862690  0.51527845    -0.17900
C1266       C  0.83733590  0.10729138  0.52166171     0.10500
S1267       S  0.78495822  0.12904664  0.92105218    -0.32800
S1268       S  0.85350122  0.10651093  0.56356348    -0.32800
H1269       H  0.86175169  0.16222081  0.56272420     0.28500
H1270       H  0.77355546  0.07593347  0.91705482     0.28500
H1271       H  0.83382718  0.18528379  0.94857523     0.19100
H1272       H  0.80977664  0.03848617  0.53480985     0.19100
loop_ 
_geom_bond_atom_site_label_1 
_geom_bond_atom_site_label_2 
_geom_bond_distance 
_geom_bond_site_symmetry_2 
_ccdc_geom_bond_type 
C1            C6   1.410       .  A
C1          C320   1.433   1_565  A
C1          C298   1.517       .  S
C2            C3   1.415       .  A
C2          C319   1.436   1_545  A
C2          C628   1.507       .  S
C3            C4   1.414       .  A
C3            H8   1.085       .  S
C4          C323   1.434   1_545  A
C4          C592   1.515       .  S
C5            C6   1.407       .  A
C5          C322   1.432   1_565  A
C5          C283   1.500       .  S
C6            H7   1.085       .  S
C9           C10   1.535       .  S
C9           C13   1.585       .  S
C9          C333   1.528       .  S
C9          C295   1.570       .  S
C10          H17   1.083       .  S
C10          C11   1.360       .  D
C11          C12   1.540       .  S
C11         C259   1.491       .  S
C12          C14   1.523       .  S
C12         C334   1.544       .  S
C12          H18   1.111       .  S
C13          H19   1.084       .  S
C13          C14   1.396       .  D
C14         C238   1.509       .  S
C15         C327   1.525   1_554  S
C15          H20   1.086       .  S
C15          C16   1.356       .  D
C16         C330   1.541   1_554  S
C16         C247   1.487       .  S
O21         Zr33   2.492       .  S
O21          C23   1.295       .  A
O22        Zr695   2.372       .  S
O22          C23   1.275       .  A
C23         C262   1.496       .  S
O24         Zr36   2.457       .  S
O24          C26   1.287       .  A
O25         Zr60   2.376       .  S
O25          C26   1.277       .  A
C26         C214   1.483       .  S
O27         Zr36   2.445       .  S
O27          C29   1.286       .  A
O28         Zr59   2.355       .  S
O28          C29   1.272       .  A
C29         C223   1.454       .  S
O30         Zr33   2.473       .  S
O30          C32   1.292       .  A
O31        Zr696   2.352       .  S
O31          C32   1.271       .  A
C32         C250   1.464       .  S
Zr33         O34   2.435       .  S
Zr33         O35   2.436       .  S
Zr33         O63   2.295       .  S
Zr33        O675   2.285       .  S
Zr33         O65   2.380       .  S
Zr33        O676   2.386       .  S
O34          H77   0.990       .  S
O35          H76   0.990       .  S
O35          H80   0.990       .  S
Zr36         O37   2.437       .  S
Zr36         O38   2.434       .  S
Zr36         O39   2.287       .  S
Zr36         O66   2.280       .  S
Zr36         O40   2.378       .  S
Zr36         O64   2.376   1_565  S
O37          H78   0.990       .  S
O37          H81   0.990       .  S
O38          H71   0.990       .  S
O39         Zr59   2.258       .  S
O39        Zr669   2.285   1_455  S
O40         Zr60   2.370       .  S
O40        Zr669   2.385   1_455  S
O40          H67   0.969       .  S
O41         Zr53   2.513       .  S
O41          C43   1.300       .  A
O42        Zr696   2.384   1_545  S
O42          C43   1.277       .  A
C43         C163   1.501       .  S
O44         Zr56   2.491       .  S
O44          C46   1.295       .  A
O45         Zr59   2.350   1_545  S
O45          C46   1.270       .  A
C46         C202   1.468       .  S
O47         Zr56   2.495       .  S
O47          C49   1.296       .  A
O48         Zr60   2.353   1_545  S
O48          C49   1.270       .  A
C49         C187   1.485       .  S
O50         Zr53   2.501       .  S
O50          C52   1.299       .  A
O51        Zr695   2.370   1_545  S
O51          C52   1.273       .  A
C52         C175   1.494       .  S
Zr53         O54   2.434       .  S
Zr53         O55   2.435   1_545  S
Zr53         O63   2.290   1_545  S
Zr53        O698   2.290       .  S
Zr53         O65   2.392   1_545  S
Zr53        O697   2.388       .  S
O54          H74   0.990       .  S
O54          H79   0.991       .  S
O55          H75   0.989       .  S
Zr56         O57   2.435       .  S
Zr56         O58   2.436       .  S
Zr56         O62   2.289   1_455  S
Zr56         O66   2.283   1_545  S
Zr56         O61   2.381   1_455  S
Zr56         O64   2.377       .  S
O57          H73   0.990   1_455  S
O58          H72   0.990       .  S
O58          H82   0.990       .  S
Zr59        O658   2.368   1_455  S
Zr59        O687   2.375   1_465  S
Zr59         O62   2.259   1_465  S
Zr59         O64   2.376   1_565  S
Zr59        O701   2.368   1_455  S
Zr60        O667   2.354   1_455  S
Zr60        O678   2.391   1_465  S
Zr60         O66   2.257       .  S
Zr60        O699   2.262   1_455  S
Zr60         O61   2.378   1_465  S
O61        Zr689   2.393       .  S
O61          H69   0.965       .  S
O62        Zr689   2.287       .  S
O63        Zr696   2.263       .  S
O64          H68   0.967       .  S
O65        Zr695   2.369       .  S
O65          H70   0.967       .  S
C83          C84   1.531       .  S
C83          C87   1.569       .  S
C83         C407   1.544       .  S
C83         C151   1.571       .  S
C84          H91   1.085       .  S
C84          C85   1.364       .  D
C85          C86   1.556       .  S
C85         C178   1.499       .  S
C86          C88   1.525       .  S
C86         C408   1.550       .  S
C86          H92   1.108       .  S
C87          H93   1.085       .  S
C87          C88   1.384       .  D
C88         C307   1.502       .  S
C89         C401   1.548   1_554  S
C89          H94   1.081       .  S
C89          C90   1.365       .  D
C90         C404   1.551   1_554  S
C90         C166   1.518       .  S
C95          C96   1.539       .  S
C95          C99   1.583       .  S
C95         C419   1.526       .  S
C95         C139   1.564       .  S
C96         H103   1.085       .  S
C96          C97   1.361       .  D
C97          C98   1.535       .  S
C97         C226   1.498       .  S
C98         C100   1.509       .  S
C98         C420   1.540       .  S
C98         H104   1.107       .  S
C99         H105   1.085       .  S
C99         C100   1.390       .  D
C100        C286   1.502       .  S
C101        C413   1.528   1_554  S
C101        H106   1.081       .  S
C101        C102   1.358       .  D
C102        C416   1.540   1_554  S
C102        C211   1.478       .  S
C107        C113   1.531       .  S
C107        C111   1.574       .  S
C107        C426   1.535       .  S
C107        C130   1.561       .  S
C108        C425   1.533   1_554  S
C108        H115   1.083       .  S
C108        C109   1.353       .  D
C109        C428   1.544   1_554  S
C109        C190   1.471       .  S
C110        C114   1.538       .  S
C110        C112   1.532       .  S
C110        C427   1.543       .  S
C110        H116   1.111       .  S
C111        H117   1.085       .  S
C111        C112   1.394       .  D
C112        C271   1.512       .  S
C113        H118   1.084       .  S
C113        C114   1.351       .  D
C114        C199   1.480       .  S
C119        C124   1.409       .  A
C119        C756   1.426   1_455  A
C119        C460   1.500       .  S
C120        C121   1.418       .  A
C120        C755   1.427       .  A
C120        C553   1.508       .  S
C121        C122   1.419       .  A
C121        H126   1.084       .  S
C122        C759   1.430       .  A
C122        C472   1.515       .  S
C123        C124   1.408       .  A
C123        C758   1.430   1_455  A
C123        C445   1.502       .  S
C124        H125   1.085       .  S
C127        C128   1.405       .  A
C127        C450   1.421       .  A
C127        C441   1.496       .  S
C128        C129   1.408       .  A
C128        H137   1.084       .  S
C129        C130   1.422       .  A
C129        S133   1.805       .  S
C130        C449   1.412       .  A
C131        C132   1.409       .  A
C131        C448   1.414   1_554  A
C131        H138   1.081       .  S
C132        C445   1.419   1_554  A
C132        S134   1.809       .  S
S133        H136   1.405       .  S
S134        H135   1.400       .  S
C139        C140   1.418       .  A
C139        C462   1.423       .  A
C140        C141   1.406       .  A
C140        H149   1.081       .  S
C141        C142   1.412       .  A
C141        S145   1.801       .  S
C142        C461   1.409       .  A
C142        C437   1.502       .  S
C143        C144   1.411       .  A
C143        C460   1.406   1_554  A
C143        H150   1.084       .  S
C144        C457   1.426   1_554  A
C144        S146   1.804       .  S
S145        H148   1.405       .  S
S146        H147   1.406       .  S
C151        C156   1.428       .  A
C151        C470   1.418       .  A
C152        C153   1.412       .  A
C152        C469   1.420   1_554  A
C152        H161   1.078       .  S
C153        C472   1.414   1_554  A
C153        S157   1.798       .  S
C154        C155   1.403       .  A
C154        C471   1.413       .  A
C154        C440   1.505       .  S
C155        C156   1.411       .  A
C155        H162   1.084       .  S
C156        S158   1.797       .  S
S157        H796   1.406       .  S
S158        H159   1.401       .  S
H160        S793   1.405       .  S
C163        C164   1.415       .  A
C163        C168   1.412       .  A
C164        C165   1.415       .  A
C164        H173   1.083   1_545  S
C165        C166   1.414       .  A
C165        S169   1.804       .  S
C166        C167   1.417       .  A
C167        C168   1.404       .  A
C167        H174   1.083       .  S
C168        S170   1.799       .  S
S169        H490   1.407   1_545  S
S170        H171   1.405       .  S
H172        S487   1.407   1_565  S
C175        C176   1.398       .  A
C175        C180   1.425       .  A
C176        C177   1.402       .  A
C176        H185   1.084       .  S
C177        C178   1.423       .  A
C177        S181   1.798       .  S
C178        C179   1.398       .  A
C179        C180   1.402       .  A
C179        H186   1.082       .  S
C180        S182   1.803   1_545  S
S181        H184   1.400       .  S
S182        H819   1.407       .  S
H183        S818   1.408       .  S
C187        C188   1.402       .  A
C187        C192   1.423       .  A
C188        C189   1.405       .  A
C188        H197   1.084       .  S
C189        C190   1.420       .  A
C189        S193   1.806       .  S
C190        C191   1.388       .  A
C191        C192   1.388       .  A
C191        H198   1.085       .  S
C192        S194   1.794   1_455  S
S193        H196   1.402       .  S
S194        H831   1.407       .  S
H195        S830   1.407       .  S
C199        C200   1.404       .  A
C199        C204   1.411       .  A
C200        C201   1.402       .  A
C200        H209   1.081       .  S
C201        C202   1.413       .  A
C201        S205   1.803       .  S
C202        C203   1.405       .  A
C203        C204   1.396       .  A
C203        H210   1.085       .  S
C204        S206   1.804   1_455  S
S205        H208   1.404       .  S
S206        H207   1.406   1_655  S
C211        C212   1.408       .  A
C211        C216   1.403       .  A
C212        C213   1.401       .  A
C212        H221   1.084       .  S
C213        C214   1.412       .  A
C213        S217   1.799       .  S
C214        C215   1.409       .  A
C215        C216   1.395       .  A
C215        H222   1.083       .  S
C216        S218   1.802       .  S
S217        H220   1.407       .  S
S218        H219   1.405       .  S
C223        C224   1.406       .  A
C223        C228   1.397       .  A
C224        C225   1.400       .  A
C224        H233   1.083       .  S
C225        C226   1.413       .  A
C225        S229   1.800       .  S
C226        C227   1.418       .  A
C227        C228   1.384       .  A
C227        H234   1.081       .  S
C228        S230   1.801       .  S
S229        H232   1.405   1_565  S
S230        H231   1.406       .  S
C235        C240   1.426       .  A
C235        C554   1.400       .  A
C235        C438   1.508       .  S
C236        C237   1.410       .  A
C236        C553   1.400   1_554  A
C236        H245   1.083       .  S
C237        C556   1.420   1_554  A
C237        S241   1.799       .  S
C238        C239   1.407       .  A
C238        C555   1.418       .  A
C239        C240   1.417       .  A
C239        H246   1.084       .  S
C240        S242   1.806       .  S
S241        H244   1.406       .  S
S242        H243   1.400       .  S
C247        C248   1.400       .  A
C247        C252   1.425       .  A
C248        C249   1.398       .  A
C248        H257   1.080       .  S
C249        C250   1.414       .  A
C249        S253   1.807       .  S
C250        C251   1.392       .  A
C251        C252   1.394       .  A
C251        H258   1.084       .  S
C252        S254   1.800       .  S
S253        H256   1.407       .  S
S254        H255   1.403       .  S
C259        C260   1.410       .  A
C259        C264   1.406       .  A
C260        C261   1.401       .  A
C260        H269   1.084       .  S
C261        C262   1.412       .  A
C261        S265   1.798       .  S
C262        C263   1.417       .  A
C263        C264   1.405       .  A
C263        H270   1.084       .  S
C264        S266   1.804       .  S
S265        H268   1.407       .  S
S266        H267   1.405       .  S
C271        C276   1.419       .  A
C271        C590   1.411       .  A
C272        C273   1.406       .  A
C272        C589   1.411   1_554  A
C272        H281   1.083       .  S
C273        C592   1.413   1_554  A
C273        S277   1.794       .  S
C274        C275   1.414       .  A
C274        C591   1.413       .  A
C274        C322   1.513       .  S
C275        C276   1.417       .  A
C275        H282   1.084       .  S
C276        S278   1.806       .  S
S277        H280   1.406       .  S
S278        H279   1.400       .  S
C283        C284   1.404       .  A
C283        C606   1.425       .  A
C284        C285   1.409       .  A
C284        H293   1.084       .  S
C285        C286   1.416       .  A
C285        S289   1.794       .  S
C286        C605   1.405       .  A
C287        C288   1.409       .  A
C287        C604   1.403   1_554  A
C287        H294   1.084       .  S
C288        C601   1.427   1_554  A
C288        S290   1.809       .  S
S289        H292   1.406       .  S
S290        H291   1.399       .  S
C295        C296   1.424       .  A
C295        C618   1.421       .  A
C296        C297   1.407       .  A
C296        H305   1.075       .  S
C297        C298   1.411       .  A
C297        S301   1.798       .  S
C298        C617   1.412       .  A
C299        C300   1.414       .  A
C299        C616   1.414   1_554  A
C299        H306   1.082       .  S
C300        C613   1.420   1_554  A
C300        S302   1.803       .  S
S301        H304   1.406       .  S
S302        H303   1.407       .  S
C307        C308   1.402       .  A
C307        C630   1.416       .  A
C308        C309   1.409       .  A
C308        H317   1.081       .  S
C309        C310   1.425       .  A
C309        S313   1.808       .  S
C310        C629   1.402       .  A
C310        C320   1.503       .  S
C311        C312   1.406       .  A
C311        C628   1.401   1_554  A
C311        H318   1.084       .  S
C312        C625   1.417   1_554  A
C312        S314   1.793       .  S
S313        H316   1.401       .  S
S314        H315   1.407       .  S
C319        C324   1.413       .  A
C319        C616   1.522       .  S
C320        C321   1.415       .  A
C321        C322   1.413       .  A
C321        H326   1.085       .  S
C323        C324   1.408       .  A
C323        C601   1.504       .  S
C324        H325   1.085       .  S
C327        C328   1.536       .  S
C327        C331   1.589       .  S
C327        C613   1.570       .  S
C328        H335   1.083       .  S
C328        C329   1.363       .  D
C329        C330   1.538       .  S
C329        C577   1.488       .  S
C330        C332   1.518       .  S
C330        H336   1.109   1_556  S
C331        H337   1.084       .  S
C331        C332   1.396       .  D
C332        C556   1.513       .  S
C333        H338   1.086       .  S
C333        C334   1.357       .  D
C334        C565   1.494       .  S
O339       Zr351   2.484       .  S
O339        C341   1.294       .  A
O340      Zr1013   2.363       .  S
O340        C341   1.274       .  A
C341        C580   1.491       .  S
O342       Zr354   2.442       .  S
O342        C344   1.284       .  A
O343       Zr378   2.365       .  S
O343        C344   1.275       .  A
C344        C532   1.470       .  S
O345       Zr354   2.445       .  S
O345        C347   1.286       .  A
O346       Zr377   2.368       .  S
O346        C347   1.274       .  A
C347        C541   1.461       .  S
O348       Zr351   2.493       .  S
O348        C350   1.296       .  A
O349      Zr1014   2.355       .  S
O349        C350   1.271       .  A
C350        C568   1.477       .  S
Zr351       O352   2.435       .  S
Zr351       O353   2.435       .  S
Zr351       O993   2.287       .  S
Zr351       O381   2.286       .  S
Zr351       O994   2.382       .  S
Zr351       O383   2.389       .  S
O352        H395   0.990       .  S
O353        H394   0.990       .  S
O353        H398   0.990       .  S
Zr354       O355   2.434       .  S
Zr354       O356   2.434       .  S
Zr354       O357   2.281       .  S
Zr354       O384   2.280   1_565  S
Zr354       O358   2.375       .  S
Zr354       O382   2.373   1_565  S
O355        H396   0.990       .  S
O355        H399   0.990       .  S
O356        H389   0.990       .  S
O357       Zr987   2.285   1_455  S
O357       Zr377   2.252       .  S
O358       Zr987   2.380   1_455  S
O358       Zr378   2.367       .  S
O358        H385   0.969       .  S
O359       Zr371   2.497       .  S
O359        C361   1.297       .  A
O360      Zr1014   2.384   1_545  S
O360        C361   1.277       .  A
C361        C481   1.493       .  S
O362       Zr374   2.510       .  S
O362        C364   1.300       .  A
O363       Zr377   2.341   1_545  S
O363        C364   1.269       .  A
C364        C520   1.473       .  S
O365       Zr374   2.513       .  S
O365        C367   1.300       .  A
O366       Zr378   2.346   1_545  S
O366        C367   1.267       .  A
C367        C505   1.495       .  S
O368       Zr371   2.500       .  S
O368        C370   1.298       .  A
O369      Zr1013   2.382   1_545  S
O369        C370   1.275       .  A
C370        C493   1.497       .  S
Zr371       O372   2.436       .  S
Zr371       O373   2.435       .  S
Zr371      O1016   2.290       .  S
Zr371       O381   2.291   1_545  S
Zr371      O1015   2.388       .  S
Zr371       O383   2.388   1_545  S
O372        H392   0.990       .  S
O372        H397   0.990       .  S
O373        H393   0.990   1_545  S
Zr374       O375   2.436       .  S
Zr374       O376   2.437       .  S
Zr374       O380   2.290   1_455  S
Zr374       O384   2.283       .  S
Zr374       O379   2.380   1_455  S
Zr374       O382   2.378       .  S
O375        H391   0.990   1_455  S
O376        H390   0.990       .  S
O376        H400   0.990       .  S
Zr377       O976   2.372   1_455  S
Zr377      O1005   2.370   1_465  S
Zr377       O380   2.264   1_465  S
Zr377       O382   2.376   1_565  S
Zr377      O1019   2.369   1_455  S
Zr378       O985   2.361   1_455  S
Zr378       O996   2.388   1_465  S
Zr378      O1017   2.257   1_455  S
Zr378       O384   2.262   1_565  S
Zr378       O379   2.377   1_465  S
O379      Zr1007   2.388       .  S
O379        H387   0.964       .  S
O380      Zr1007   2.289       .  S
O381      Zr1014   2.257       .  S
O382        H386   0.965       .  S
O383      Zr1013   2.371       .  S
O383        H388   0.968       .  S
C401        C402   1.533       .  S
C401        C405   1.575       .  S
C401        C469   1.582       .  S
C402        H409   1.085       .  S
C402        C403   1.364       .  D
C403        C404   1.555       .  S
C403        C496   1.501       .  S
C404        C406   1.527       .  S
C404        H410   1.109       .  S
C405        H411   1.085       .  S
C405        C406   1.389       .  D
C406        C625   1.509       .  S
C407        H412   1.082       .  S
C407        C408   1.365       .  D
C408        C484   1.515       .  S
C413        C414   1.540       .  S
C413        C417   1.578       .  S
C413        C457   1.564       .  S
C414        H421   1.085       .  S
C414        C415   1.364       .  D
C415        C416   1.538       .  S
C415        C544   1.498       .  S
C416        C418   1.513       .  S
C416        H422   1.108       .  S
C417        H423   1.085       .  S
C417        C418   1.388       .  D
C418        C604   1.498       .  S
C419        H424   1.082       .  S
C419        C420   1.361       .  D
C420        C529   1.470       .  S
C425        C431   1.532       .  S
C425        C429   1.578       .  S
C425        C448   1.566       .  S
C426        H433   1.084       .  S
C426        C427   1.354       .  D
C427        C508   1.476       .  S
C428        C432   1.540       .  S
C428        C430   1.530       .  S
C428        H434   1.111       .  S
C429        H435   1.085       .  S
C429        C430   1.396       .  D
C430        C589   1.515       .  S
C431        H436   1.084       .  S
C431        C432   1.351       .  D
C432        C517   1.486       .  S
C437       C1074   1.427   1_455  A
C437        C442   1.404       .  A
C438       C1073   1.429       .  A
C438        C439   1.416       .  A
C439        C440   1.418       .  A
C439        H444   1.084       .  S
C440       C1077   1.427       .  A
C441       C1076   1.431   1_455  A
C441        C442   1.405       .  A
C442        H443   1.086       .  S
C445        C446   1.407       .  A
C446        C447   1.411       .  A
C446        H455   1.084       .  S
C447        C448   1.424       .  A
C447        S451   1.805       .  S
C449        C450   1.407       .  A
C449        H456   1.082       .  S
C450        S452   1.809       .  S
S451        H454   1.404       .  S
S452        H453   1.399       .  S
C457        C458   1.416       .  A
C458        C459   1.407       .  A
C458        H467   1.082       .  S
C459        C460   1.413       .  A
C459        S463   1.802       .  S
C461        C462   1.411       .  A
C461        H468   1.084       .  S
C462        S464   1.804       .  S
S463        H466   1.404       .  S
S464        H465   1.406       .  S
C469        C474   1.430       .  A
C470        C471   1.408       .  A
C470        H479   1.079       .  S
C471        S475   1.800       .  S
C472        C473   1.405       .  A
C473        C474   1.415       .  A
C473        H480   1.084       .  S
C474        S476   1.796       .  S
S475       H1114   1.406       .  S
S476        H477   1.401       .  S
H478       S1111   1.405       .  S
C481        C482   1.413       .  A
C481        C486   1.409       .  A
C482        C483   1.414       .  A
C482        H491   1.083   1_545  S
C483        C484   1.415       .  A
C483        S487   1.805       .  S
C484        C485   1.416       .  A
C485        C486   1.399       .  A
C485        H492   1.083       .  S
C486        S488   1.799       .  S
S488        H489   1.405       .  S
C493        C494   1.399       .  A
C493        C498   1.424       .  A
C494        C495   1.405       .  A
C494        H503   1.084       .  S
C495        C496   1.424       .  A
C495        S499   1.799       .  S
C496        C497   1.397       .  A
C497        C498   1.403       .  A
C497        H504   1.080       .  S
C498        S500   1.801   1_545  S
S499        H502   1.399       .  S
S500       H1137   1.407       .  S
H501       S1136   1.407       .  S
C505        C506   1.402       .  A
C505        C510   1.432       .  A
C506        C507   1.404       .  A
C506        H515   1.083       .  S
C507        C508   1.418       .  A
C507        S511   1.805       .  S
C508        C509   1.388       .  A
C509        C510   1.393       .  A
C509        H516   1.085       .  S
C510        S512   1.800       .  S
S511        H514   1.403       .  S
S512       H1149   1.405   1_455  S
H513       S1148   1.405       .  S
C517        C518   1.403       .  A
C517        C522   1.411       .  A
C518        C519   1.404       .  A
C518        H527   1.080       .  S
C519        C520   1.416       .  A
C519        S523   1.804       .  S
C520        C521   1.407       .  A
C521        C522   1.399       .  A
C521        H528   1.085       .  S
C522        S524   1.803   1_455  S
S523        H526   1.403       .  S
S524        H525   1.407   1_655  S
C529        C530   1.405       .  A
C529        C534   1.403       .  A
C530        C531   1.397       .  A
C530        H539   1.084       .  S
C531        C532   1.410       .  A
C531        S535   1.799       .  S
C532        C533   1.407       .  A
C533        C534   1.392       .  A
C533        H540   1.084       .  S
C534        S536   1.799       .  S
S535        H538   1.407       .  S
S536        H537   1.403   1_565  S
C541        C542   1.404       .  A
C541        C546   1.400       .  A
C542        C543   1.400       .  A
C542        H551   1.082       .  S
C543        C544   1.413       .  A
C543        S547   1.798       .  S
C544        C545   1.416       .  A
C545        C546   1.389       .  A
C545        H552   1.082       .  S
C546        S548   1.801       .  S
S547        H550   1.406   1_565  S
S548        H549   1.407       .  S
C553        C558   1.424       .  A
C554        C555   1.408       .  A
C554        H563   1.083       .  S
C555        S559   1.797       .  S
C556        C557   1.407       .  A
C557        C558   1.418       .  A
C557        H564   1.083       .  S
C558        S560   1.804       .  S
S559        H562   1.407       .  S
S560        H561   1.401       .  S
C565        C566   1.400       .  A
C565        C570   1.426       .  A
C566        C567   1.403       .  A
C566        H575   1.081       .  S
C567        C568   1.418       .  A
C567        S571   1.807       .  S
C568        C569   1.394       .  A
C569        C570   1.397       .  A
C569        H576   1.084       .  S
C570        S572   1.800       .  S
S571        H574   1.407       .  S
S572        H573   1.404       .  S
C577        C578   1.410       .  A
C577        C582   1.403       .  A
C578        C579   1.400       .  A
C578        H587   1.084       .  S
C579        C580   1.411       .  A
C579        S583   1.799       .  S
C580        C581   1.416       .  A
C581        C582   1.399       .  A
C581        H588   1.085       .  S
C582        S584   1.798       .  S
S583        H586   1.407       .  S
S584        H585   1.403       .  S
C589        C594   1.418       .  A
C590        C591   1.406       .  A
C590        H599   1.083       .  S
C591        S595   1.795       .  S
C592        C593   1.416       .  A
C593        C594   1.418       .  A
C593        H600   1.084       .  S
C594        S596   1.805       .  S
S595        H598   1.406       .  S
S596        H597   1.400       .  S
C601        C602   1.405       .  A
C602        C603   1.410       .  A
C602        H611   1.084       .  S
C603        C604   1.416       .  A
C603        S607   1.796       .  S
C605        C606   1.410       .  A
C605        H612   1.084       .  S
C606        S608   1.810       .  S
S607        H610   1.406       .  S
S608        H609   1.400       .  S
C613        C614   1.424       .  A
C614        C615   1.408       .  A
C614        H623   1.075       .  S
C615        C616   1.413       .  A
C615        S619   1.797       .  S
C617        C618   1.415       .  A
C617        H624   1.082       .  S
C618        S620   1.803       .  S
S619        H622   1.406       .  S
S620        H621   1.406       .  S
C625        C626   1.404       .  A
C626        C627   1.413       .  A
C626        H635   1.081       .  S
C627        C628   1.427       .  A
C627        S631   1.808       .  S
C629        C630   1.406       .  A
C629        H636   1.084       .  S
C630        S632   1.795       .  S
S631        H634   1.401       .  S
S632        H633   1.407       .  S
C637        C956   1.433   1_565  A
C637        C642   1.412       .  A
C637        C934   1.518       .  S
C638        C955   1.433   1_545  A
C638        C639   1.413       .  A
C638       C1264   1.499       .  S
C639        C640   1.410       .  A
C639        H644   1.085       .  S
C640        C959   1.435   1_545  A
C640       C1228   1.517       .  S
C641        C958   1.438   1_565  A
C641        C642   1.411       .  A
C641        C919   1.507       .  S
C642        H643   1.085       .  S
C645        C646   1.535       .  S
C645        C969   1.531       .  S
C645        C649   1.584       .  S
C645        C931   1.574       .  S
C646        H653   1.082       .  S
C646        C647   1.360       .  D
C647        C648   1.538       .  S
C647        C895   1.486       .  S
C648        C970   1.543       .  S
C648        C650   1.520       .  S
C648        H654   1.111       .  S
C649        H655   1.084       .  S
C649        C650   1.394       .  D
C650        C874   1.506       .  S
C651        C963   1.530   1_554  S
C651        H656   1.086       .  S
C651        C652   1.361       .  D
C652        C966   1.543   1_554  S
C652        C883   1.495       .  S
O657       Zr669   2.489       .  S
O657        C659   1.294       .  A
O658        C659   1.275       .  A
C659        C898   1.494       .  S
O660       Zr672   2.453       .  S
O660        C662   1.285       .  A
O661       Zr696   2.362       .  S
O661        C662   1.275       .  A
C662        C850   1.478       .  S
O663       Zr672   2.443       .  S
O663        C665   1.285       .  A
O664       Zr695   2.354       .  S
O664        C665   1.272       .  A
C665        C859   1.454       .  S
O666       Zr669   2.485       .  S
O666        C668   1.295       .  A
O667        C668   1.271       .  A
C668        C886   1.470       .  S
Zr669       O670   2.434       .  S
Zr669       O671   2.436       .  S
Zr669       O699   2.290       .  S
Zr669       O701   2.386       .  S
O670        H713   0.990       .  S
O671        H712   0.990       .  S
O671        H716   0.990       .  S
Zr672       O673   2.437       .  S
Zr672       O674   2.439       .  S
Zr672       O675   2.291       .  S
Zr672       O702   2.280       .  S
Zr672       O676   2.379       .  S
Zr672       O700   2.373       .  S
O673        H714   0.990       .  S
O673        H717   0.990       .  S
O674        H707   0.989       .  S
O675       Zr695   2.259       .  S
O676       Zr696   2.373       .  S
O676        H703   0.969       .  S
O677       Zr689   2.497       .  S
O677        C679   1.297       .  A
O678        C679   1.279       .  A
C679        C799   1.498       .  S
O680       Zr692   2.490       .  S
O680        C682   1.295       .  A
O681       Zr695   2.345   1_545  S
O681        C682   1.269       .  A
C682        C838   1.466       .  S
O683       Zr692   2.493       .  S
O683        C685   1.296       .  A
O684       Zr696   2.367   1_545  S
O684        C685   1.274       .  A
C685        C823   1.485       .  S
O686       Zr689   2.502       .  S
O686        C688   1.298       .  A
O687        C688   1.274       .  A
C688        C811   1.494       .  S
Zr689       O690   2.434       .  S
Zr689       O691   2.435   1_545  S
Zr689       O699   2.292   1_545  S
Zr689       O701   2.388   1_545  S
O690        H710   0.989       .  S
O690        H715   0.990       .  S
O691        H711   0.990       .  S
Zr692       O693   2.436       .  S
Zr692       O694   2.436       .  S
Zr692       O698   2.290       .  S
Zr692       O702   2.282   1_545  S
Zr692       O697   2.382       .  S
Zr692       O700   2.373   1_545  S
O693        H709   0.990       .  S
O694        H708   0.990       .  S
O694        H718   0.990       .  S
Zr695       O698   2.263   1_565  S
Zr695       O700   2.374       .  S
Zr696       O702   2.258       .  S
Zr696       O697   2.373   1_565  S
O697        H705   0.965       .  S
O700        H704   0.965   1_565  S
O701        H706   0.967       .  S
C719        C720   1.534       .  S
C719       C1043   1.547       .  S
C719        C723   1.577       .  S
C719        C787   1.583       .  S
C720        H727   1.085       .  S
C720        C721   1.364       .  D
C721        C722   1.554       .  S
C721        C814   1.503       .  S
C722       C1044   1.551       .  S
C722        C724   1.525       .  S
C722        H728   1.108       .  S
C723        H729   1.085       .  S
C723        C724   1.390       .  D
C724        C943   1.509       .  S
C725       C1037   1.546   1_554  S
C725        H730   1.083       .  S
C725        C726   1.365       .  D
C726       C1040   1.547   1_554  S
C726        C802   1.511       .  S
C731        C732   1.538       .  S
C731       C1055   1.528       .  S
C731        C735   1.583       .  S
C731        C775   1.564       .  S
C732        H739   1.084       .  S
C732        C733   1.360       .  D
C733        C734   1.536       .  S
C733        C862   1.494       .  S
C734       C1056   1.540       .  S
C734        C736   1.512       .  S
C734        H740   1.109       .  S
C735        H741   1.085       .  S
C735        C736   1.391       .  D
C736        C922   1.504       .  S
C737       C1049   1.528   1_554  S
C737        H742   1.082       .  S
C737        C738   1.358       .  D
C738       C1052   1.537   1_554  S
C738        C847   1.469       .  S
C743       C1062   1.534       .  S
C743        C749   1.533       .  S
C743        C747   1.581       .  S
C743        C766   1.567       .  S
C744       C1061   1.535   1_554  S
C744        H751   1.084       .  S
C744        C745   1.356       .  D
C745       C1064   1.544   1_554  S
C745        C826   1.472       .  S
C746       C1063   1.540       .  S
C746        C750   1.535       .  S
C746        C748   1.528       .  S
C746        H752   1.111       .  S
C747        H753   1.085       .  S
C747        C748   1.398       .  D
C748        C907   1.518       .  S
C749        H754   1.082       .  S
C749        C750   1.351       .  D
C750        C835   1.480       .  S
C755        C760   1.405       .  A
C755       C1096   1.498       .  S
C756        C757   1.417       .  A
C756       C1189   1.509       .  S
C757        C758   1.420       .  A
C757        H762   1.084       .  S
C758       C1108   1.512       .  S
C759        C760   1.405       .  A
C759       C1081   1.498       .  S
C760        H761   1.086       .  S
C763        C764   1.404       .  A
C763       C1086   1.421       .  A
C763       C1077   1.501       .  S
C764        C765   1.409       .  A
C764        H773   1.084       .  S
C765        C766   1.426       .  A
C765        S769   1.806       .  S
C766       C1085   1.414       .  A
C767       C1084   1.413   1_554  A
C767        C768   1.409       .  A
C767        H774   1.081       .  S
C768       C1081   1.421   1_554  A
C768        S770   1.810       .  S
S769        H772   1.405       .  S
S770        H771   1.400       .  S
C775        C776   1.419       .  A
C775       C1098   1.423       .  A
C776        C777   1.407       .  A
C776        H785   1.081       .  S
C777        C778   1.411       .  A
C777        S781   1.803       .  S
C778       C1097   1.408       .  A
C778       C1073   1.498       .  S
C779       C1096   1.408   1_554  A
C779        C780   1.409       .  A
C779        H786   1.084       .  S
C780       C1093   1.422   1_554  A
C780        S782   1.804       .  S
S781        H784   1.404       .  S
S782        H783   1.407       .  S
C787       C1106   1.419       .  A
C787        C792   1.431       .  A
C788       C1105   1.418   1_554  A
C788        C789   1.412       .  A
C788        H797   1.080       .  S
C789       C1108   1.415   1_554  A
C789        S793   1.799       .  S
C790       C1107   1.415       .  A
C790        C791   1.405       .  A
C790       C1076   1.515       .  S
C791        C792   1.416       .  A
C791        H798   1.084       .  S
C792        S794   1.795       .  S
S794        H795   1.402       .  S
C799        C800   1.414       .  A
C799        C804   1.411       .  A
C800        C801   1.413       .  A
C800        H809   1.083   1_545  S
C801        C802   1.413       .  A
C801        S805   1.804       .  S
C802        C803   1.414       .  A
C803        C804   1.402       .  A
C803        H810   1.083       .  S
C804        S806   1.798       .  S
S805       H1126   1.407   1_545  S
S806        H807   1.407       .  S
H808       S1123   1.407   1_565  S
C811        C812   1.398       .  A
C811        C816   1.424       .  A
C812        C813   1.403       .  A
C812        H821   1.084       .  S
C813        C814   1.425       .  A
C813        S817   1.797       .  S
C814        C815   1.399       .  A
C815        C816   1.404       .  A
C815        H822   1.081       .  S
C816        S818   1.803   1_545  S
S817        H820   1.399       .  S
C823        C824   1.403       .  A
C823        C828   1.419       .  A
C824        C825   1.408       .  A
C824        H833   1.084       .  S
C825        C826   1.420       .  A
C825        S829   1.807       .  S
C826        C827   1.390       .  A
C827        C828   1.389       .  A
C827        H834   1.085       .  S
C828        S830   1.791       .  S
S829        H832   1.401       .  S
C835        C836   1.404       .  A
C835        C840   1.408       .  A
C836        C837   1.402       .  A
C836        H845   1.080       .  S
C837        C838   1.414       .  A
C837        S841   1.804       .  S
C838        C839   1.406       .  A
C839        C840   1.395       .  A
C839        H846   1.085       .  S
C840        S842   1.803       .  S
S841        H844   1.402       .  S
S842        H843   1.406       .  S
C847        C848   1.405       .  A
C847        C852   1.402       .  A
C848        C849   1.399       .  A
C848        H857   1.084       .  S
C849        C850   1.411       .  A
C849        S853   1.799       .  S
C850        C851   1.409       .  A
C851        C852   1.391       .  A
C851        H858   1.083       .  S
C852        S854   1.805       .  S
S853        H856   1.407       .  S
S854        H855   1.407       .  S
C859        C860   1.406       .  A
C859        C864   1.398       .  A
C860        C861   1.398       .  A
C860        H869   1.082       .  S
C861        C862   1.409       .  A
C861        S865   1.797       .  S
C862        C863   1.417       .  A
C863        C864   1.386       .  A
C863        H870   1.082       .  S
C864        S866   1.801       .  S
S865        H868   1.405   1_565  S
S866        H867   1.407       .  S
C871       C1190   1.400       .  A
C871        C876   1.424       .  A
C871       C1074   1.504       .  S
C872       C1189   1.401   1_554  A
C872        C873   1.410       .  A
C872        H881   1.083       .  S
C873       C1192   1.419   1_554  A
C873        S877   1.797       .  S
C874       C1191   1.417       .  A
C874        C875   1.406       .  A
C875        C876   1.415       .  A
C875        H882   1.082       .  S
C876        S878   1.806       .  S
S877        H880   1.407       .  S
S878        H879   1.401       .  S
C883        C884   1.402       .  A
C883        C888   1.426       .  A
C884        C885   1.404       .  A
C884        H893   1.082       .  S
C885        C886   1.416       .  A
C885        S889   1.807   1_655  S
C886        C887   1.390       .  A
C887        C888   1.394       .  A
C887        H894   1.084       .  S
C888        S890   1.796       .  S
S889        H892   1.406       .  S
S890        H891   1.403       .  S
C895        C896   1.410       .  A
C895        C900   1.405       .  A
C896        C897   1.401       .  A
C896        H905   1.083       .  S
C897        C898   1.410       .  A
C897        S901   1.798       .  S
C898        C899   1.417       .  A
C899        C900   1.401       .  A
C899        H906   1.084   1_655  S
C900        S902   1.805       .  S
S901        H904   1.407       .  S
S902        H903   1.404       .  S
C907       C1226   1.413       .  A
C907        C912   1.419       .  A
C908       C1225   1.410   1_554  A
C908        C909   1.405       .  A
C908        H917   1.082       .  S
C909       C1228   1.413   1_554  A
C909        S913   1.793       .  S
C910       C1227   1.413       .  A
C910        C911   1.417       .  A
C910        C958   1.517       .  S
C911        C912   1.419       .  A
C911        H918   1.084       .  S
C912        S914   1.806       .  S
S913        H916   1.406       .  S
S914        H915   1.400       .  S
C919        C920   1.406       .  A
C919       C1242   1.427       .  A
C920        C921   1.412       .  A
C920        H929   1.084       .  S
C921        C922   1.416       .  A
C921        S925   1.795       .  S
C922       C1241   1.404       .  A
C923       C1240   1.403   1_554  A
C923        C924   1.408       .  A
C923        H930   1.084       .  S
C924       C1237   1.427   1_554  A
C924        S926   1.810       .  S
S925        H928   1.406       .  S
S926        H927   1.400       .  S
C931        C932   1.424       .  A
C931       C1254   1.422       .  A
C932        C933   1.409       .  A
C932        H941   1.074       .  S
C933        C934   1.412       .  A
C933        S937   1.799       .  S
C934       C1253   1.411       .  A
C935       C1252   1.411   1_554  A
C935        C936   1.415       .  A
C935        H942   1.083       .  S
C936       C1249   1.421   1_554  A
C936        S938   1.799       .  S
S937        H940   1.406       .  S
S938        H939   1.407       .  S
C943        C944   1.404       .  A
C943       C1266   1.419       .  A
C944        C945   1.413       .  A
C944        H953   1.081       .  S
C945        C946   1.426       .  A
C945        S949   1.808       .  S
C946       C1265   1.401       .  A
C946        C956   1.506       .  S
C947       C1264   1.399   1_554  A
C947        C948   1.402       .  A
C947        H954   1.084       .  S
C948       C1261   1.417   1_554  A
C948        S950   1.793       .  S
S949        H952   1.402       .  S
S950        H951   1.407       .  S
C955        C960   1.408       .  A
C955       C1252   1.521       .  S
C956        C957   1.413       .  A
C957        C958   1.413       .  A
C957        H962   1.085       .  S
C959        C960   1.409       .  A
C959       C1237   1.499       .  S
C960        H961   1.085       .  S
C963        C964   1.535       .  S
C963        C967   1.588       .  S
C963       C1249   1.578       .  S
C964        H971   1.081       .  S
C964        C965   1.361       .  D
C965        C966   1.537       .  S
C965       C1213   1.485       .  S
C966        C968   1.520       .  S
C966        H972   1.111   1_556  S
C967        H973   1.084       .  S
C967        C968   1.398       .  D
C968       C1192   1.514       .  S
C969        H974   1.086       .  S
C969        C970   1.362       .  D
C970       C1201   1.497       .  S
O975       Zr987   2.472       .  S
O975        C977   1.291       .  A
O976        C977   1.275       .  A
C977       C1216   1.487       .  S
O978       Zr990   2.452       .  S
O978        C980   1.285       .  A
O979      Zr1014   2.369       .  S
O979        C980   1.276       .  A
C980       C1168   1.479       .  S
O981       Zr990   2.444       .  S
O981        C983   1.285       .  A
O982      Zr1013   2.360       .  S
O982        C983   1.273       .  A
C983       C1177   1.456       .  S
O984       Zr987   2.472       .  S
O984        C986   1.292       .  A
O985        C986   1.272       .  A
C986       C1204   1.464       .  S
Zr987       O988   2.435       .  S
Zr987       O989   2.436       .  S
Zr987      O1017   2.289       .  S
Zr987      O1019   2.384       .  S
O988       H1031   0.990       .  S
O989       H1030   0.990       .  S
O989       H1034   0.990       .  S
Zr990       O991   2.435       .  S
Zr990       O992   2.434       .  S
Zr990       O993   2.285       .  S
Zr990      O1020   2.281       .  S
Zr990       O994   2.381       .  S
Zr990      O1018   2.380   1_565  S
O991       H1032   0.990       .  S
O991       H1035   0.990       .  S
O992       H1025   0.990       .  S
O993      Zr1013   2.259       .  S
O994      Zr1014   2.367       .  S
O994       H1021   0.969       .  S
O995      Zr1007   2.504       .  S
O995        C997   1.298       .  A
O996        C997   1.278       .  A
C997       C1117   1.499       .  S
O998      Zr1010   2.499       .  S
O998       C1000   1.297       .  A
O999      Zr1013   2.349   1_545  S
O999       C1000   1.270       .  A
C1000      C1156   1.471       .  S
O1001     Zr1010   2.500       .  S
O1001      C1003   1.298       .  A
O1002     Zr1014   2.347   1_545  S
O1002      C1003   1.268       .  A
C1003      C1141   1.488       .  S
O1004     Zr1007   2.503       .  S
O1004      C1006   1.299       .  A
O1005      C1006   1.273       .  A
C1006      C1129   1.493       .  S
Zr1007     O1008   2.434       .  S
Zr1007     O1009   2.435   1_545  S
Zr1007     O1017   2.293   1_545  S
Zr1007     O1019   2.393   1_545  S
O1008      H1028   0.990       .  S
O1008      H1033   0.990       .  S
O1009      H1029   0.990       .  S
Zr1010     O1011   2.434       .  S
Zr1010     O1012   2.435       .  S
Zr1010     O1016   2.292       .  S
Zr1010     O1020   2.286   1_545  S
Zr1010     O1015   2.383       .  S
Zr1010     O1018   2.373       .  S
O1011      H1027   0.990       .  S
O1012      H1026   0.990       .  S
O1012      H1036   0.990       .  S
Zr1013     O1016   2.261   1_565  S
Zr1013     O1018   2.375   1_565  S
Zr1014     O1020   2.258       .  S
Zr1014     O1015   2.375   1_565  S
O1015      H1023   0.961       .  S
O1018      H1022   0.967       .  S
O1019      H1024   0.968       .  S
C1037      C1038   1.535       .  S
C1037      C1041   1.572       .  S
C1037      C1105   1.577       .  S
C1038      H1045   1.084       .  S
C1038      C1039   1.363       .  D
C1039      C1040   1.550       .  S
C1039      C1132   1.499       .  S
C1040      C1042   1.526       .  S
C1040      H1046   1.109       .  S
C1041      H1047   1.085       .  S
C1041      C1042   1.388       .  D
C1042      C1261   1.503       .  S
C1043      H1048   1.081       .  S
C1043      C1044   1.365       .  D
C1044      C1120   1.518       .  S
C1049      C1050   1.540       .  S
C1049      C1053   1.579       .  S
C1049      C1093   1.559       .  S
C1050      H1057   1.086       .  S
C1050      C1051   1.362       .  D
C1051      C1052   1.535       .  S
C1051      C1180   1.494       .  S
C1052      C1054   1.512       .  S
C1052      H1058   1.108       .  S
C1053      H1059   1.085       .  S
C1053      C1054   1.388       .  D
C1054      C1240   1.498       .  S
C1055      H1060   1.083       .  S
C1055      C1056   1.360       .  D
C1056      C1165   1.475       .  S
C1061      C1067   1.532       .  S
C1061      C1065   1.575       .  S
C1061      C1084   1.563       .  S
C1062      H1069   1.084       .  S
C1062      C1063   1.353       .  D
C1063      C1144   1.468       .  S
C1064      C1068   1.540       .  S
C1064      C1066   1.531       .  S
C1064      H1070   1.111       .  S
C1065      H1071   1.085       .  S
C1065      C1066   1.394       .  D
C1066      C1225   1.513       .  S
C1067      H1072   1.083       .  S
C1067      C1068   1.351       .  D
C1068      C1153   1.488       .  S
C1073      C1078   1.407       .  A
C1074      C1075   1.418       .  A
C1075      C1076   1.419       .  A
C1075      H1080   1.084       .  S
C1077      C1078   1.404       .  A
C1078      H1079   1.085       .  S
C1081      C1082   1.404       .  A
C1082      C1083   1.408       .  A
C1082      H1091   1.084       .  S
C1083      C1084   1.425       .  A
C1083      S1087   1.805       .  S
C1085      C1086   1.410       .  A
C1085      H1092   1.082       .  S
C1086      S1088   1.809       .  S
S1087      H1090   1.403       .  S
S1088      H1089   1.400       .  S
C1093      C1094   1.415       .  A
C1094      C1095   1.407       .  A
C1094      H1103   1.082       .  S
C1095      C1096   1.415       .  A
C1095      S1099   1.805       .  S
C1097      C1098   1.409       .  A
C1097      H1104   1.084       .  S
C1098      S1100   1.804       .  S
S1099      H1102   1.402       .  S
S1100      H1101   1.405       .  S
C1105      C1110   1.429       .  A
C1106      C1107   1.412       .  A
C1106      H1115   1.079       .  S
C1107      S1111   1.799       .  S
C1108      C1109   1.404       .  A
C1109      C1110   1.413       .  A
C1109      H1116   1.084       .  S
C1110      S1112   1.796       .  S
S1112      H1113   1.403       .  S
C1117      C1118   1.413       .  A
C1117      C1122   1.411       .  A
C1118      C1119   1.413       .  A
C1118      H1127   1.083   1_545  S
C1119      C1120   1.414       .  A
C1119      S1123   1.804       .  S
C1120      C1121   1.417       .  A
C1121      C1122   1.408       .  A
C1121      H1128   1.081       .  S
C1122      S1124   1.807       .  S
S1124      H1125   1.407       .  S
C1129      C1130   1.397       .  A
C1129      C1134   1.425       .  A
C1130      C1131   1.402       .  A
C1130      H1139   1.084       .  S
C1131      C1132   1.424       .  A
C1131      S1135   1.798       .  S
C1132      C1133   1.397       .  A
C1133      C1134   1.402       .  A
C1133      H1140   1.080       .  S
C1134      S1136   1.803   1_545  S
S1135      H1138   1.396       .  S
C1141      C1142   1.402       .  A
C1141      C1146   1.428       .  A
C1142      C1143   1.404       .  A
C1142      H1151   1.083       .  S
C1143      C1144   1.417       .  A
C1143      S1147   1.804       .  S
C1144      C1145   1.386       .  A
C1145      C1146   1.387       .  A
C1145      H1152   1.085       .  S
C1146      S1148   1.795       .  S
S1147      H1150   1.403       .  S
C1153      C1154   1.404       .  A
C1153      C1158   1.413       .  A
C1154      C1155   1.403       .  A
C1154      H1163   1.080       .  S
C1155      C1156   1.413       .  A
C1155      S1159   1.803       .  S
C1156      C1157   1.405       .  A
C1157      C1158   1.398       .  A
C1157      H1164   1.085       .  S
C1158      S1160   1.804       .  S
S1159      H1162   1.404       .  S
S1160      H1161   1.407       .  S
C1165      C1166   1.407       .  A
C1165      C1170   1.402       .  A
C1166      C1167   1.400       .  A
C1166      H1175   1.084       .  S
C1167      C1168   1.411       .  A
C1167      S1171   1.799       .  S
C1168      C1169   1.408       .  A
C1169      C1170   1.392       .  A
C1169      H1176   1.084       .  S
C1170      S1172   1.799       .  S
S1171      H1174   1.407       .  S
S1172      H1173   1.406   1_565  S
C1177      C1178   1.405       .  A
C1177      C1182   1.398       .  A
C1178      C1179   1.399       .  A
C1178      H1187   1.082       .  S
C1179      C1180   1.412       .  A
C1179      S1183   1.800       .  S
C1180      C1181   1.417       .  A
C1181      C1182   1.386       .  A
C1181      H1188   1.081       .  S
C1182      S1184   1.800       .  S
S1183      H1186   1.406   1_565  S
S1184      H1185   1.407       .  S
C1189      C1194   1.423       .  A
C1190      C1191   1.408       .  A
C1190      H1199   1.083       .  S
C1191      S1195   1.799       .  S
C1192      C1193   1.408       .  A
C1193      C1194   1.418       .  A
C1193      H1200   1.082       .  S
C1194      S1196   1.806       .  S
S1195      H1198   1.407       .  S
S1196      H1197   1.401       .  S
C1201      C1202   1.405       .  A
C1201      C1206   1.426       .  A
C1202      C1203   1.405       .  A
C1202      H1211   1.082       .  S
C1203      C1204   1.413       .  A
C1203      S1207   1.806   1_655  S
C1204      C1205   1.389       .  A
C1205      C1206   1.391       .  A
C1205      H1212   1.085       .  S
C1206      S1208   1.794       .  S
S1207      H1210   1.406       .  S
S1208      H1209   1.404       .  S
C1213      C1214   1.410       .  A
C1213      C1218   1.406       .  A
C1214      C1215   1.398       .  A
C1214      H1223   1.083       .  S
C1215      C1216   1.410       .  A
C1215      S1219   1.800       .  S
C1216      C1217   1.415       .  A
C1217      C1218   1.401       .  A
C1217      H1224   1.085   1_655  S
C1218      S1220   1.805       .  S
S1219      H1222   1.407       .  S
S1220      H1221   1.405       .  S
C1225      C1230   1.418       .  A
C1226      C1227   1.408       .  A
C1226      H1235   1.083       .  S
C1227      S1231   1.795       .  S
C1228      C1229   1.417       .  A
C1229      C1230   1.418       .  A
C1229      H1236   1.084       .  S
C1230      S1232   1.806       .  S
S1231      H1234   1.406       .  S
S1232      H1233   1.401       .  S
C1237      C1238   1.403       .  A
C1238      C1239   1.408       .  A
C1238      H1247   1.084       .  S
C1239      C1240   1.415       .  A
C1239      S1243   1.793       .  S
C1241      C1242   1.411       .  A
C1241      H1248   1.084       .  S
C1242      S1244   1.809       .  S
S1243      H1246   1.406       .  S
S1244      H1245   1.399       .  S
C1249      C1250   1.426       .  A
C1250      C1251   1.412       .  A
C1250      H1259   1.074       .  S
C1251      C1252   1.412       .  A
C1251      S1255   1.800       .  S
C1253      C1254   1.415       .  A
C1253      H1260   1.082       .  S
C1254      S1256   1.802       .  S
S1255      H1258   1.406       .  S
S1256      H1257   1.406       .  S
C1261      C1262   1.403       .  A
C1262      C1263   1.410       .  A
C1262      H1271   1.080       .  S
C1263      C1264   1.425       .  A
C1263      S1267   1.807       .  S
C1265      C1266   1.406       .  A
C1265      H1272   1.084       .  S
C1266      S1268   1.793       .  S
S1267      H1270   1.402       .  S
S1268      H1269   1.407       .  S
