geometry optimzed in LAMMPS
_audit_creation_date              2020-11-30 
_audit_creation_method            'lammps2cif' 
_symmetry_space_group_name_H-M    'P1' 
_symmetry_Int_Tables_number       1 
_symmetry_cell_setting            triclinic 
loop_ 
_symmetry_equiv_pos_as_xyz 
  x,y,z 
_cell_length_a                    24.43101288 
_cell_length_b                    44.29471196281129 
_cell_length_c                    41.0064477959889 
_cell_angle_alpha                 90.82026593457903 
_cell_angle_beta                  89.54238598161291 
_cell_angle_gamma                 90.8637816617003 
loop_ 
_atom_site_label 
_atom_site_type_symbol 
_atom_site_fract_x 
_atom_site_fract_y 
_atom_site_fract_z 
_atom_site_charge 
In1        In  0.05054568  0.41064279  0.20036930     1.36900
C2          C  0.06111386  0.35490907  0.17359511     0.77100
O3          O  0.13499294  0.41765389  0.18066921    -0.61400
O4          O  0.11260344  0.44107771  0.22415417    -0.52300
C5          C  0.00115295  0.45879890  0.17588223     0.69700
O6          O  0.04382364  0.44750268  0.16399884    -0.47200
C7          C  0.01953762  0.40330689  0.26163937     0.74400
O8          O  0.04166648  0.37663501  0.15803619    -0.59000
O9          O  0.06865774  0.40703024  0.25275315    -0.49100
O10         O  0.06935491  0.36086609  0.20314677    -0.55400
C11         C  0.14910077  0.43563759  0.20321990     0.84600
O12         O  0.97824666  0.44242791  0.19713069    -0.57300
O13         O  0.98498619  0.40286009  0.23865380    -0.60600
In14       In  0.46747902  0.41020982  0.19602004     1.36900
C15         C  0.44375285  0.35616269  0.16770014     0.77100
O16         O  0.52558167  0.39422834  0.23510202    -0.61400
O17         O  0.44350023  0.40485936  0.24733376    -0.52300
C18         C  0.52668145  0.45804866  0.17542383     0.69700
O19         O  0.50540163  0.43915783  0.15578116    -0.47200
C20         C  0.37433548  0.43935930  0.20109252     0.74400
O21         O  0.48979342  0.36196369  0.18030776    -0.59000
O22         O  0.39677755  0.42672388  0.22467299    -0.49100
O23         O  0.41268437  0.37838894  0.16707456    -0.55400
C24         C  0.48932512  0.39661074  0.25734743     0.84600
O25         O  0.52543337  0.44947711  0.20447377    -0.57300
O26         O  0.40073891  0.43772024  0.17461943    -0.60600
In27       In  0.10406270  0.27228521  0.13115848     1.36900
C28         C  0.02326734  0.27294154  0.08647990     0.77100
O29         O  0.11028537  0.22134352  0.12882219    -0.61400
O30         O  0.06451584  0.24032185  0.16785053    -0.52300
C31         C  0.21788736  0.27367034  0.12872029     0.69700
O32         O  0.18843958  0.26942291  0.10366178    -0.47200
C33         C  0.07632244  0.32557399  0.15857460     0.74400
O34         O  0.07320132  0.27770131  0.07895468    -0.59000
O35         O  0.08590826  0.30235794  0.17508784    -0.49100
O36         O  0.01563668  0.26669545  0.11600484    -0.55400
C37         C  0.08067304  0.21658882  0.15360695     0.84600
O38         O  0.18940661  0.27819151  0.15413255    -0.57300
O39         O  0.08322639  0.32194747  0.12826875    -0.60600
In40       In  0.39364657  0.27112063  0.13363204     1.36900
C41         C  0.47631278  0.27020442  0.08954135     0.77100
O42         O  0.39756236  0.32212194  0.13043526    -0.61400
O43         O  0.43577056  0.30194152  0.17070938    -0.52300
C44         C  0.28011731  0.27290209  0.12932087     0.69700
O45         O  0.31103205  0.26798133  0.10485298    -0.47200
C46         C  0.41269469  0.21764225  0.16168687     0.74400
O47         O  0.42627114  0.26963120  0.08124172    -0.59000
O48         O  0.40107656  0.24112131  0.17800872    -0.49100
O49         O  0.48349399  0.27080646  0.11988501    -0.55400
C50         C  0.42593566  0.32596221  0.15577939     0.84600
O51         O  0.30701745  0.27676846  0.15525963    -0.57300
O52         O  0.41180895  0.22109165  0.13125087    -0.60600
In53       In  0.04989804  0.13007222  0.18948252     1.36900
C54         C  0.06749495  0.18578858  0.16513462     0.77100
O55         O  0.00456485  0.14463246  0.23444328    -0.61400
O56         O  0.08990983  0.13662444  0.23789231    -0.52300
C57         C  0.98202342  0.08501528  0.17158005     0.69700
O58         O  0.98932414  0.09289480  0.20079021    -0.47200
C59         C  0.13501556  0.09578325  0.17781616     0.74400
O60         O  0.02232921  0.17800988  0.17798003    -0.59000
O61         O  0.11655941  0.10065720  0.20618242    -0.49100
O62         O  0.10146839  0.16486033  0.16306858    -0.55400
C63         C  0.04622039  0.14360152  0.25259360     0.84600
O64         O  0.00031070  0.10391739  0.15129910    -0.57300
O65         O  0.10894323  0.10818095  0.15533610    -0.60600
In66       In  0.44203215  0.13330590  0.20126960     1.36900
C67         C  0.42549736  0.18843289  0.17670206     0.77100
O68         O  0.38279843  0.11578771  0.16437236    -0.61400
O69         O  0.36848704  0.10470385  0.21361216    -0.52300
C70         C  0.50838115  0.08786931  0.18513427     0.69700
O71         O  0.49942351  0.09602530  0.21412751    -0.47200
C72         C  0.46244614  0.14561260  0.26337372     0.74400
O73         O  0.46392744  0.17164606  0.16692841    -0.59000
O74         O  0.41801848  0.13383218  0.25357559    -0.49100
O75         O  0.39782039  0.17779487  0.19996430    -0.55400
C76         C  0.35268718  0.10229262  0.18451704     0.84600
O77         O  0.49132891  0.10612111  0.16435296    -0.57300
O78         O  0.49636624  0.15204668  0.24076436    -0.60600
In79       In  0.97993607  0.13692442  0.45116270     1.36900
C80         C  0.93454639  0.19535847  0.97524457     0.77100
O81         O  0.04410909  0.15109990  0.41425756    -0.61400
O82         O  0.96265458  0.13998460  0.39894682    -0.52300
C83         C  0.03606621  0.08794035  0.46783191     0.69700
O84         O  0.96932810  0.10319435  0.98370962    -0.47200
C85         C  0.88320084  0.10996457  0.45142447     0.74400
O86         O  0.96558495  0.17638931  0.98807439    -0.59000
O87         O  0.91003907  0.11455898  0.42566474    -0.49100
O88         O  0.94283618  0.18293159  0.45144151    -0.55400
C89         C  0.01038543  0.14840077  0.39090624     0.84600
O90         O  0.05168275  0.10529435  0.44543581    -0.57300
O91         O  0.88218968  0.12119798  0.97754774    -0.60600
In92       In  0.55839780  0.13345671  0.45825284     1.36900
C93         C  0.55303454  0.18871327  0.98439870     0.77100
O94         O  0.59617009  0.11103243  0.98318706    -0.61400
O95         O  0.62288433  0.10512445  0.43496055    -0.52300
C96         C  0.50485005  0.08497332  0.48131625     0.69700
O97         O  0.47735318  0.10868315  0.99312315    -0.47200
C98         C  0.52498708  0.14527600  0.39873705     0.74400
O99         O  0.56847633  0.16419617  0.99585651    -0.59000
O100        O  0.57224313  0.13591056  0.40502618    -0.49100
O101        O  0.54520867  0.16964858  0.49759805    -0.55400
C102        C  0.65549977  0.10857287  0.45837941     0.84600
O103        O  0.49046725  0.09803550  0.45573554    -0.57300
O104        O  0.49381307  0.14870975  0.42342589    -0.60600
In105      In  0.56101885  0.40709908  0.45440259     1.36900
C106        C  0.56684790  0.35621226  0.98403721     0.77100
O107        O  0.50176151  0.38986491  0.41704348    -0.61400
O108        O  0.58455296  0.39971170  0.40287645    -0.52300
C109        C  0.50437940  0.45783403  0.45930525     0.69700
O110        O  0.52994308  0.44492854  0.00111829    -0.47200
C111        C  0.64916401  0.43245541  0.47832208     0.74400
O112        O  0.53384972  0.37449463  0.99732932    -0.59000
O113        O  0.64280970  0.42756766  0.44818103    -0.49100
O114        O  0.60143191  0.36222666  0.45458261    -0.55400
C115        C  0.53716256  0.39133676  0.39421349     0.84600
O116        O  0.54005121  0.45277057  0.43769583    -0.57300
O117        O  0.62836675  0.42300728  0.98811396    -0.60600
In118      In  0.96037971  0.41444450  0.46309483     1.36900
C119        C  0.93777383  0.36337744  0.98512162     0.77100
O120        O  0.89967439  0.44531180  0.98615582    -0.61400
O121        O  0.88729709  0.44223372  0.45542870    -0.52300
C122        C  0.02427424  0.46175652  0.47832621     0.69700
O123        O  0.00674917  0.44830874  0.99032749    -0.47200
C124        C  0.97286626  0.40632857  0.39989741     0.74400
O125        O  0.90890844  0.38618658  0.99016067    -0.59000
O126        O  0.92944516  0.41628783  0.41271719    -0.49100
O127        O  0.92133510  0.36837278  0.46000255    -0.55400
C128        C  0.86883554  0.43911879  0.48387952     0.84600
O129        O  0.01517812  0.45347837  0.44946055    -0.57300
O130        O  0.00974759  0.39934940  0.42006409    -0.60600
In131      In  0.60491164  0.27225182  0.02157137     1.36900
C132        C  0.52282299  0.27057226  0.06595697     0.77100
O133        O  0.58374463  0.32174169  0.02753565    -0.61400
O134        O  0.60167500  0.30090437  0.47894556    -0.52300
C135        C  0.71893645  0.27355340  0.02395009     0.69700
O136        O  0.68879504  0.27493769  0.04925926    -0.47200
C137        C  0.57323830  0.21830433  0.99686947     0.74400
O138        O  0.57294389  0.27146147  0.07414947    -0.59000
O139        O  0.60218346  0.24081827  0.48034320    -0.49100
O140        O  0.51540064  0.27047639  0.03563496    -0.55400
C141        C  0.58054142  0.32649258  0.99738962     0.84600
O142        O  0.69106807  0.27125150  0.99821397    -0.57300
O143        O  0.59959793  0.22121252  0.02312161    -0.60600
In144      In  0.89508854  0.27732265  0.01935739     1.36900
C145        C  0.97713962  0.27492771  0.06315650     0.77100
O146        O  0.91613869  0.22785933  0.02116609    -0.61400
O147        O  0.93468481  0.24338299  0.47717797    -0.52300
C148        C  0.78125926  0.27472048  0.02345767     0.69700
O149        O  0.81174553  0.27673952  0.04833951    -0.47200
C150        C  0.92220440  0.33294801  0.99723854     0.74400
O151        O  0.92700837  0.27217502  0.07127439    -0.59000
O152        O  0.92530962  0.30473850  0.47802783    -0.49100
O153        O  0.98469632  0.27960242  0.03325834    -0.55400
C154        C  0.91966642  0.22436965  0.99069845     0.84600
O155        O  0.80872971  0.27394097  0.99724226    -0.57300
O156        O  0.89370307  0.32878132  0.02265739    -0.60600
C157        C  0.72836498  0.46602952  0.47194641    -0.09700
C158        C  0.70072854  0.44449245  0.49080098     0.06500
C159        C  0.72862167  0.42947885  0.51554287    -0.03400
C160        C  0.78549398  0.43203950  0.51676687    -0.07900
C161        C  0.81401877  0.44900703  0.49329504     0.05600
C162        C  0.78504208  0.46865188  0.47324052    -0.02900
Br163      Br  0.81534055  0.48260406  0.89998351    -0.02600
H164        H  0.70651549  0.47852002  0.45377474     0.09500
H165        H  0.80737483  0.41751618  0.53303911     0.07600
Br166      Br  0.69328278  0.40055973  0.54351429    -0.03000
C167        C  0.45463519  0.03734043  0.46646464    -0.10900
C168        C  0.48901788  0.05304145  0.48852468     0.06500
C169        C  0.48653513  0.04109310  0.00985567    -0.03400
C170        C  0.48963563  0.00951734  0.01093313    -0.07900
C171        C  0.48243924  0.48864949  0.46366850     0.05600
C172        C  0.45317243  0.00565547  0.46503259    -0.02900
Br173      Br  0.44787465  0.48540472  0.39589752    -0.02600
H174        H  0.43213037  0.04965445  0.44838820     0.09500
H175        H  0.54027705  0.49378461  0.03163314     0.07600
Br176      Br  0.53331990  0.06383783  0.03884045    -0.03000
C177        C  0.07907809  0.00807530  0.44582533    -0.09700
C178        C  0.04115784  0.49332556  0.48616146     0.06500
C179        C  0.00818265  0.01360983  0.00053880    -0.03400
C180        C  0.00658944  0.04518661  0.99949824    -0.07900
C181        C  0.05495325  0.05624585  0.47143913     0.05600
C182        C  0.07845457  0.03974890  0.44511922    -0.02900
Br183      Br  0.10308057  0.05816729  0.40533672    -0.02600
H184        H  0.09592568  0.49682482  0.44477701     0.09500
H185        H  0.98302687  0.05700189  0.01809727     0.07600
Br186      Br  0.98613453  0.50072820  0.03469090    -0.03000
C187        C  0.80055334  0.09557600  0.48229700    -0.09700
C188        C  0.82619463  0.09903469  0.45179758     0.06500
C189        C  0.79419319  0.09751618  0.42324461    -0.03400
C190        C  0.73738752  0.09685210  0.42610815    -0.07900
C191        C  0.71204628  0.09829537  0.45683072     0.05600
C192        C  0.74379398  0.09556403  0.48510079    -0.02900
Br193      Br  0.71271748  0.09398720  0.52824093    -0.02600
H194        H  0.82459893  0.09551946  0.50442271     0.09500
H195        H  0.71315982  0.09830254  0.40415596     0.07600
Br196      Br  0.82368108  0.09997674  0.37972669    -0.03000
C197        C  0.45271947  0.14457554  0.35636332    -0.09700
C198        C  0.50742611  0.15023577  0.36479676     0.06500
C199        C  0.54526580  0.15810566  0.34002303    -0.03400
C200        C  0.52906437  0.15763257  0.30738443    -0.07900
C201        C  0.47517942  0.14987393  0.29856918     0.05600
C202        C  0.43618143  0.14449772  0.32371369    -0.02900
Br203      Br  0.35973235  0.13688864  0.31583324    -0.02600
H204        H  0.42293575  0.13910327  0.37517142     0.09500
H205        H  0.55935871  0.16271873  0.28873606     0.07600
Br206      Br  0.61925598  0.17068312  0.34913386    -0.03000
C207        C  0.07423558  0.14183204  0.34399314    -0.09700
C208        C  0.02478917  0.15301798  0.35636173     0.06500
C209        C  0.98609955  0.16442806  0.33459526    -0.03400
C210        C  0.99541211  0.16243105  0.30103473    -0.07900
C211        C  0.04295153  0.14914964  0.28831309     0.05600
C212        C  0.08363635  0.13966560  0.31025926    -0.02900
Br213      Br  0.15068885  0.12108868  0.29644539    -0.02600
H214        H  0.10413432  0.13290846  0.36051500     0.09500
H215        H  0.96435759  0.17053952  0.28479161     0.07600
Br216      Br  0.91930609  0.18278096  0.34922472    -0.03000
C217        C  0.21744646  0.08997101  0.14435031    -0.09700
C218        C  0.18762565  0.08106134  0.17196734     0.06500
C219        C  0.21534065  0.06755559  0.19777253    -0.03400
C220        C  0.27198044  0.07121190  0.19971273    -0.07900
C221        C  0.30070998  0.08727428  0.17558042     0.05600
C222        C  0.27410289  0.09346974  0.14596582    -0.02900
Br223      Br  0.30974271  0.11140887  0.10888680    -0.02600
H224        H  0.19647221  0.09866743  0.12330900     0.09500
H225        H  0.29260929  0.06411207  0.22161291     0.07600
Br226      Br  0.17736419  0.04713875  0.23241374    -0.03000
C227        C  0.55022879  0.38083931  0.30252570    -0.09700
C228        C  0.49911264  0.39132362  0.29249399     0.06500
C229        C  0.45891848  0.39791687  0.31669000    -0.03400
C230        C  0.47123706  0.39514848  0.34962344    -0.07900
C231        C  0.52328806  0.38671828  0.35956048     0.05600
C232        C  0.56260192  0.37855410  0.33572372    -0.02900
Br233      Br  0.63355612  0.36398837  0.34700008    -0.02600
H234        H  0.58122696  0.37512118  0.28455970     0.09500
H235        H  0.44085996  0.40165457  0.36765833     0.07600
Br236      Br  0.38734423  0.41325497  0.30794469    -0.03000
C237        C  0.50992073  0.00801048  0.15211461    -0.09700
C238        C  0.54247192  0.48962040  0.16650622     0.06500
C239        C  0.56845357  0.01149300  0.19938863    -0.03400
C240        C  0.56343533  0.04305677  0.19932197    -0.07900
C241        C  0.52912340  0.05727013  0.17705516     0.05600
C242        C  0.50454395  0.03944750  0.15217063    -0.02900
Br243      Br  0.45399144  0.05541443  0.12140818    -0.02600
H244        H  0.49076958  0.48896656  0.12416904     0.09500
H245        H  0.58324704  0.05637590  0.21836874     0.07600
Br246      Br  0.61393348  0.49334251  0.22355407    -0.03000
C247        C  0.02796462  0.38938843  0.35238010    -0.09700
C248        C  0.98081722  0.40372728  0.36410018     0.06500
C249        C  0.94445762  0.41632792  0.34135051    -0.03400
C250        C  0.95627479  0.41438696  0.30788732    -0.07900
C251        C  0.00453033  0.40098778  0.29647899     0.05600
C252        C  0.04034069  0.38820535  0.31913180    -0.02900
Br253      Br  0.10692041  0.36853154  0.30654535    -0.02600
H254        H  0.05624053  0.37949432  0.36922973     0.09500
H255        H  0.92898130  0.42479163  0.29080887     0.07600
Br256      Br  0.88026891  0.43854494  0.35368666    -0.03000
C257        C  0.94064553  0.00400796  0.18427561    -0.09700
C258        C  0.98487146  0.49048312  0.16922055     0.06500
C259        C  0.00250299  0.00741838  0.13802747    -0.03400
C260        C  0.99562306  0.03885301  0.13802542    -0.07900
C261        C  0.96543601  0.05348264  0.16269493     0.05600
C262        C  0.93419954  0.03551497  0.18424220    -0.02900
Br263      Br  0.88504320  0.05333735  0.21546700    -0.02600
H264        H  0.92936376  0.49235659  0.21051219     0.09500
H265        H  0.01946030  0.05218287  0.12085748     0.07600
Br266      Br  0.06126103  0.49164243  0.11317883    -0.03000
C267        C  0.23199981  0.45696179  0.17717910    -0.09700
C268        C  0.20485620  0.44761447  0.20562291     0.06500
C269        C  0.23414162  0.44530613  0.23482034    -0.03400
C270        C  0.29097433  0.44698129  0.23377034    -0.07900
C271        C  0.31875328  0.45131459  0.20406308     0.05600
C272        C  0.28893763  0.45996051  0.17655746    -0.02900
Br273      Br  0.32335581  0.47486279  0.13759785    -0.02600
H274        H  0.20910904  0.46051921  0.15505520     0.09500
H275        H  0.31333088  0.44184883  0.25566180     0.07600
Br276      Br  0.20009239  0.43506696  0.27564098    -0.03000
In277      In  0.05200167  0.40585839  0.69776136     1.36900
C278        C  0.07564591  0.35079289  0.67307754     0.77100
O279        O  0.12086626  0.42601104  0.66896694    -0.61400
O280        O  0.12463817  0.42872900  0.72029238    -0.52300
C281        C  0.99631886  0.45225474  0.67396097     0.69700
O282        O  0.01656294  0.43191812  0.65601666    -0.47200
C283        C  0.01671910  0.39462078  0.75739491     0.74400
O284        O  0.04042558  0.36758938  0.66050657    -0.59000
O285        O  0.06259154  0.40641662  0.75069612    -0.49100
O286        O  0.09573151  0.36120745  0.69902867    -0.55400
C287        C  0.14763253  0.43444814  0.69357077     0.84600
O288        O  0.99636370  0.44604046  0.70383155    -0.57300
O289        O  0.98659170  0.38869679  0.73288544    -0.60600
In290      In  0.47016745  0.41082304  0.69812911     1.36900
C291        C  0.45587414  0.35468014  0.67315443     0.77100
O292        O  0.52385507  0.39601105  0.73874227    -0.61400
O293        O  0.44403417  0.41229780  0.74995234    -0.52300
C294        C  0.53293952  0.45880805  0.68207211     0.69700
O295        O  0.49241334  0.45003849  0.66557111    -0.47200
C296        C  0.37387292  0.43558923  0.69107733     0.74400
O297        O  0.48355047  0.37469667  0.65833872    -0.59000
O298        O  0.40145219  0.43872866  0.71677152    -0.49100
O299        O  0.43984451  0.36271632  0.70100782    -0.55400
C300        C  0.48820849  0.40188651  0.76052763     0.84600
O301        O  0.54739457  0.43987504  0.70283012    -0.57300
O302        O  0.39631771  0.41998973  0.66898886    -0.60600
In303      In  0.12060295  0.26888815  0.63069298     1.36900
C304        C  0.04002620  0.27090232  0.58614883     0.77100
O305        O  0.12300740  0.21760411  0.62732504    -0.61400
O306        O  0.07935797  0.23718425  0.66684126    -0.52300
C307        C  0.23438614  0.27057963  0.62880223     0.69700
O308        O  0.20528394  0.26660095  0.60356471    -0.47200
C309        C  0.09338010  0.32187667  0.65838246     0.74400
O310        O  0.09016108  0.27440253  0.57833645    -0.59000
O311        O  0.10218587  0.29856145  0.67488938    -0.49100
O312        O  0.03210343  0.26581713  0.61589522    -0.55400
C313        C  0.09323498  0.21325110  0.65215418     0.84600
O314        O  0.20557862  0.27406112  0.65427842    -0.57300
O315        O  0.10179606  0.31859624  0.62816478    -0.60600
In316      In  0.41052098  0.27058931  0.63404081     1.36900
C317        C  0.49281134  0.27187998  0.59006671     0.77100
O318        O  0.43004357  0.32068805  0.62937615    -0.61400
O319        O  0.43388798  0.30158501  0.67635141    -0.52300
C320        C  0.29662651  0.27090092  0.62944016     0.69700
O321        O  0.32791562  0.26621316  0.60514780    -0.47200
C322        C  0.43545184  0.21611213  0.65854941     0.74400
O323        O  0.44274213  0.27219902  0.58179741    -0.59000
O324        O  0.42490885  0.23881749  0.67634264    -0.49100
O325        O  0.50024632  0.27090522  0.62043131    -0.55400
C326        C  0.44047741  0.32483370  0.65917058     0.84600
O327        O  0.32328357  0.27566110  0.65523141    -0.57300
O328        O  0.43148160  0.22089693  0.62849780    -0.60600
In329      In  0.05532943  0.12837212  0.69031512     1.36900
C330        C  0.07810976  0.18275475  0.66386431     0.77100
O331        O  0.00553592  0.15016129  0.73012285    -0.61400
O332        O  0.08158161  0.13061023  0.74196847    -0.52300
C333        C  0.98967420  0.08127860  0.67496334     0.69700
O334        O  0.99289279  0.09252171  0.70317590    -0.47200
C335        C  0.14455045  0.09657003  0.68351042     0.74400
O336        O  0.02952383  0.17369845  0.66922167    -0.59000
O337        O  0.12636447  0.10514168  0.71091954    -0.49100
O338        O  0.11370692  0.16364871  0.67022461    -0.55400
C339        C  0.03961311  0.14409927  0.75214206     0.84600
O340        O  0.01190236  0.09754047  0.65337376    -0.57300
O341        O  0.11577714  0.10370218  0.65942484    -0.60600
In342      In  0.46130621  0.12950233  0.69359068     1.36900
C343        C  0.44865931  0.18614507  0.67168831     0.77100
O344        O  0.38728546  0.11994756  0.66385244    -0.61400
O345        O  0.39626312  0.09595938  0.70764576    -0.52300
C346        C  0.52390898  0.08391521  0.67233969     0.69700
O347        O  0.53069671  0.09646926  0.69983489    -0.47200
C348        C  0.47323023  0.13860651  0.75688559     0.74400
O349        O  0.48113094  0.16772871  0.65813922    -0.59000
O350        O  0.43060226  0.12756291  0.74405281    -0.49100
O351        O  0.42614017  0.17630653  0.69708304    -0.55400
C352        C  0.36754472  0.10062357  0.68297191     0.84600
O353        O  0.49358601  0.09857212  0.65386627    -0.57300
O354        O  0.51113342  0.14541735  0.73673470    -0.60600
In355      In  0.95108039  0.14036859  0.94865042     1.36900
C356        C  0.96012745  0.19128221  0.47878279     0.77100
O357        O  0.01492951  0.15496838  0.91219381    -0.61400
O358        O  0.93681405  0.13886247  0.89559926    -0.52300
C359        C  0.00820181  0.09231300  0.96732028     0.69700
O360        O  0.99764794  0.09851029  0.48492399    -0.47200
C361        C  0.85419441  0.11375557  0.95303261     0.74400
O362        O  0.99176682  0.17268654  0.49184585    -0.59000
O363        O  0.87650627  0.11964637  0.92603016    -0.49100
O364        O  0.91560398  0.18704882  0.94822286    -0.55400
C365        C  0.98362906  0.14933582  0.88821660     0.84600
O366        O  0.02317988  0.10874860  0.94401352    -0.57300
O367        O  0.90747384  0.11799238  0.47717342    -0.60600
In368      In  0.53092997  0.13437352  0.95630649     1.36900
C369        C  0.57650094  0.18860689  0.48369068     0.77100
O370        O  0.63760216  0.12414131  0.48187668    -0.61400
O371        O  0.60816141  0.11942514  0.93287971    -0.52300
C372        C  0.47193367  0.08591981  0.97435916     0.69700
O373        O  0.53958136  0.09986528  0.49756808    -0.47200
C374        C  0.50651592  0.14608711  0.89559577     0.74400
O375        O  0.59455751  0.18007038  0.45643167    -0.59000
O376        O  0.55479689  0.14138519  0.90493907    -0.49100
O377        O  0.52040932  0.18553927  0.96092198    -0.55400
C378        C  0.62750618  0.10936366  0.95885996     0.84600
O379        O  0.48831421  0.09034850  0.94574772    -0.57300
O380        O  0.47009397  0.14592049  0.91794141    -0.60600
In381      In  0.55241349  0.41211261  0.96102630     1.36900
C382        C  0.57837984  0.35331375  0.48030609     0.77100
O383        O  0.49545595  0.39756943  0.92055615    -0.61400
O384        O  0.57699646  0.41190006  0.90931261    -0.52300
C385        C  0.49618042  0.45918567  0.98441974     0.69700
O386        O  0.49386420  0.43569070  0.47784669    -0.47200
C387        C  0.64626422  0.44148070  0.96746072     0.74400
O388        O  0.54288392  0.37113078  0.49212111    -0.59000
O389        O  0.61631150  0.44439582  0.94292353    -0.49100
O390        O  0.58902411  0.36580296  0.95842904    -0.55400
C391        C  0.53157065  0.40239354  0.89866956     0.84600
O392        O  0.48305911  0.44562340  0.95832388    -0.57300
O393        O  0.60967680  0.42468833  0.49639931    -0.60600
In394      In  0.95660790  0.41746952  0.95609418     1.36900
C395        C  0.94828944  0.35757837  0.48292401     0.77100
O396        O  0.89821802  0.42376665  0.50218158    -0.61400
O397        O  0.88073762  0.43620771  0.93633001    -0.52300
C398        C  0.02421450  0.46500079  0.96770549     0.69700
O399        O  0.00978078  0.44261596  0.49930302    -0.47200
C400        C  0.96621360  0.40079971  0.89411869     0.74400
O401        O  0.98491471  0.37513218  0.49449042    -0.59000
O402        O  0.92364129  0.41303028  0.90553182    -0.49100
O403        O  0.97959166  0.36873396  0.96780011    -0.55400
C404        C  0.86692050  0.44865574  0.96292806     0.84600
O405        O  0.01574815  0.45393791  0.93982691    -0.57300
O406        O  0.00326254  0.39650526  0.91497882    -0.60600
In407      In  0.62147226  0.27230652  0.52242235     1.36900
C408        C  0.53912845  0.27237432  0.56640781     0.77100
O409        O  0.60259832  0.32229628  0.52543392    -0.61400
O410        O  0.59199746  0.30394880  0.97953758    -0.52300
C411        C  0.73524348  0.27220313  0.52587258     0.69700
O412        O  0.70484172  0.27515546  0.55087339    -0.47200
C413        C  0.59262788  0.21809808  0.49777249     0.74400
O414        O  0.58919637  0.27260760  0.57469800    -0.59000
O415        O  0.56652822  0.24271969  0.98201398    -0.49100
O416        O  0.53170734  0.27231882  0.53601897    -0.55400
C417        C  0.59384704  0.32473761  0.49536001     0.84600
O418        O  0.70777943  0.26941950  0.50013715    -0.57300
O419        O  0.60005824  0.22256732  0.52784363    -0.60600
In420      In  0.91106828  0.27296309  0.52021907     1.36900
C421        C  0.99382029  0.27243622  0.56296914     0.77100
O422        O  0.93177421  0.22321669  0.52368676    -0.61400
O423        O  0.90801964  0.24752116  0.97462984    -0.52300
C424        C  0.79736134  0.27206685  0.52541522     0.69700
O425        O  0.82828512  0.27571581  0.54987378    -0.47200
C426        C  0.93533429  0.32751452  0.49594464     0.74400
O427        O  0.94392892  0.26930423  0.57158463    -0.59000
O428        O  0.93490551  0.30885122  0.98245760    -0.49100
O429        O  0.00092035  0.27663967  0.53286330    -0.55400
C430        C  0.94260097  0.22007845  0.49374716     0.84600
O431        O  0.82428721  0.26841112  0.49937465    -0.57300
O432        O  0.93108088  0.32272338  0.52605647    -0.60600
C433        C  0.72535906  0.46705118  0.94181896    -0.09700
C434        C  0.70000649  0.45632051  0.97030106     0.06500
C435        C  0.73045929  0.45508052  0.99931527    -0.03400
C436        C  0.78716989  0.45808687  0.99765178    -0.07900
C437        C  0.81316198  0.46210086  0.96744498     0.05600
C438        C  0.78207860  0.47022846  0.94031943    -0.02900
Br439      Br  0.82049154  0.49659218  0.44420153    -0.02600
H440        H  0.70198027  0.46997912  0.91977058     0.09500
H441        H  0.81090117  0.45336774  0.01917991     0.07600
Br442      Br  0.69824355  0.44637308  0.04110282    -0.03000
C443        C  0.42593922  0.03630499  0.96366338    -0.10900
C444        C  0.45682947  0.05490649  0.98487532     0.06500
C445        C  0.51655575  0.03609724  0.51230430    -0.03400
C446        C  0.51423481  0.00444383  0.51105991    -0.07900
C447        C  0.48207827  0.49127338  0.99228333     0.05600
C448        C  0.42926964  0.00466193  0.96463236    -0.02900
Br449      Br  0.40026169  0.49089501  0.94032890    -0.02600
H450        H  0.40265020  0.04647940  0.94437587     0.09500
H451        H  0.50765854  0.49196020  0.51377000     0.07600
Br452      Br  0.56406876  0.05391416  0.54463579    -0.03000
C453        C  0.06163293  0.01339353  0.95059273    -0.09700
C454        C  0.04510595  0.49675138  0.97207588     0.06500
C455        C  0.03762050  0.00853886  0.49955609    -0.03400
C456        C  0.03777536  0.04021175  0.49916650    -0.07900
C457        C  0.02840236  0.06118302  0.97285940     0.05600
C458        C  0.05857821  0.04494339  0.94894786    -0.02900
Br459      Br  0.09004631  0.06331201  0.91084223    -0.02600
H460        H  0.08797566  0.49650379  0.92574757     0.09500
H461        H  0.01938676  0.05223742  0.51960873     0.07600
Br462      Br  0.96273946  0.49138043  0.54079992    -0.03000
C463        C  0.77191448  0.10500309  0.98666981    -0.09700
C464        C  0.79804025  0.10192364  0.95622071     0.06500
C465        C  0.76724721  0.09235530  0.92896143    -0.03400
C466        C  0.71043989  0.09133348  0.93139339    -0.07900
C467        C  0.68406841  0.09933381  0.96065263     0.05600
C468        C  0.71513087  0.10369430  0.98921510    -0.02900
Br469      Br  0.68369780  0.11231918  0.03143271    -0.02600
H470        H  0.79530816  0.11120144  0.00823883     0.09500
H471        H  0.68669130  0.08655671  0.90960488     0.07600
Br472      Br  0.79929293  0.08221058  0.88740479    -0.03000
C473        C  0.44780917  0.13353808  0.84850291    -0.09700
C474        C  0.49384325  0.14891710  0.86071111     0.06500
C475        C  0.53061937  0.16290396  0.83876003    -0.03400
C476        C  0.52252570  0.15983395  0.80512547    -0.07900
C477        C  0.47806864  0.14294444  0.79269029     0.05600
C478        C  0.43965652  0.13022228  0.81494185    -0.02900
Br479      Br  0.37694577  0.10618489  0.80212850    -0.02600
H480        H  0.41953505  0.12249724  0.86517062     0.09500
H481        H  0.55164627  0.17042381  0.78863452     0.07600
Br482      Br  0.59186833  0.18699314  0.85339247    -0.03000
C483        C  0.05440460  0.14714260  0.84447787    -0.09700
C484        C  0.00045373  0.15336491  0.85392864     0.06500
C485        C  0.96221711  0.16091975  0.82992365    -0.03400
C486        C  0.97683022  0.15930405  0.79697744    -0.07900
C487        C  0.02948501  0.15052212  0.78720701     0.05600
C488        C  0.06938392  0.14583927  0.81145786    -0.02900
Br489      Br  0.14482154  0.13747712  0.80172408    -0.02600
H490        H  0.08451220  0.14203833  0.86276098     0.09500
H491        H  0.94612401  0.16399033  0.77892866     0.07600
Br492      Br  0.88969878  0.17422557  0.84058471    -0.03000
C493        C  0.22678234  0.08834601  0.65018626    -0.09700
C494        C  0.19895759  0.08340136  0.67967901     0.06500
C495        C  0.22847268  0.07374312  0.70691335    -0.03400
C496        C  0.28544762  0.07582552  0.70629111    -0.07900
C497        C  0.31285745  0.08707231  0.67870386     0.05600
C498        C  0.28367769  0.09034276  0.64947992    -0.02900
Br499      Br  0.31813692  0.10048911  0.60873615    -0.02600
H500        H  0.20444725  0.09428167  0.62848307     0.09500
H501        H  0.30771946  0.07150196  0.72852491     0.07600
Br502      Br  0.19336070  0.06020307  0.74629121    -0.03000
C503        C  0.55244737  0.39874189  0.80663399    -0.09700
C504        C  0.49824954  0.39821542  0.79575017     0.06500
C505        C  0.45528138  0.39604874  0.81895390    -0.03400
C506        C  0.46721371  0.39610323  0.85228501    -0.07900
C507        C  0.52139915  0.39851024  0.86325291     0.05600
C508        C  0.56445297  0.39903453  0.83987859    -0.02900
Br509      Br  0.64086604  0.40046601  0.85086488    -0.02600
H510        H  0.58587412  0.40005934  0.78919272     0.09500
H511        H  0.43373350  0.39521602  0.86969865     0.07600
Br512      Br  0.37944663  0.39267923  0.80711304    -0.03000
C513        C  0.51946281  0.00199894  0.64344045    -0.09700
C514        C  0.55483675  0.49045866  0.68031296     0.06500
C515        C  0.58400074  0.00746481  0.68753072    -0.03400
C516        C  0.57981305  0.03902806  0.68597913    -0.07900
C517        C  0.54243753  0.05249002  0.66483915     0.05600
C518        C  0.51442813  0.03351701  0.64205193    -0.02900
Br519      Br  0.46104062  0.04800592  0.61207910    -0.02600
H520        H  0.52531333  0.49705529  0.63148922     0.09500
H521        H  0.60243075  0.05285157  0.70321949     0.07600
Br522      Br  0.59906115  0.48502113  0.74654713    -0.03000
C523        C  0.02694726  0.38578535  0.84848408    -0.09700
C524        C  0.97424387  0.39374492  0.85891752     0.06500
C525        C  0.93295206  0.39705480  0.83516105    -0.03400
C526        C  0.94642622  0.39483816  0.80185439    -0.07900
C527        C  0.00047705  0.38967322  0.79171519     0.05600
C528        C  0.04036426  0.38384909  0.81545027    -0.02900
Br529      Br  0.11465445  0.37373349  0.80464688    -0.02600
H530        H  0.05896574  0.38236441  0.86609767     0.09500
H531        H  0.91527350  0.39898062  0.78389262     0.07600
Br532      Br  0.85804455  0.40560177  0.84596000    -0.03000
C533        C  0.94751368  0.00114015  0.69432882    -0.09700
C534        C  0.98168612  0.48275396  0.66217940     0.06500
C535        C  0.00455652  0.00154335  0.64582347    -0.03400
C536        C  0.99884340  0.03298211  0.64426158    -0.07900
C537        C  0.97208288  0.04922969  0.66921136     0.05600
C538        C  0.94299363  0.03271848  0.69318425    -0.02900
Br539      Br  0.90021165  0.05225724  0.72660157    -0.02600
H540        H  0.91932664  0.48983032  0.69900632     0.09500
H541        H  0.02179265  0.04507652  0.62570723     0.07600
Br542      Br  0.06378482  0.47580826  0.60979275    -0.03000
C543        C  0.23088109  0.44362535  0.66097421    -0.09700
C544        C  0.20366498  0.44662270  0.69107012     0.06500
C545        C  0.23375620  0.45552019  0.71888177    -0.03400
C546        C  0.29069828  0.45532667  0.71741332    -0.07900
C547        C  0.31780699  0.44665842  0.68856071     0.05600
C548        C  0.28780048  0.44373115  0.65943842    -0.02900
Br549      Br  0.32119954  0.43779820  0.61728821    -0.02600
H550        H  0.20814392  0.43847194  0.63894852     0.09500
H551        H  0.31344847  0.45936611  0.73967580     0.07600
Br552      Br  0.20041714  0.46595898  0.76003464    -0.03000
In553      In  0.05646599  0.91304890  0.19560863     1.36900
C554        C  0.07875240  0.85794899  0.16965603     0.77100
O555        O  0.13647793  0.92905543  0.17528841    -0.61400
O556        O  0.11271962  0.94440647  0.22248918    -0.52300
C557        C  0.99878420  0.95910433  0.17145550     0.69700
O558        O  0.03673777  0.94614343  0.15604443    -0.47200
C559        C  0.02611329  0.89829986  0.25526781     0.74400
O560        O  0.04439387  0.87534385  0.15705844    -0.59000
O561        O  0.07314275  0.90811603  0.24790457    -0.49100
O562        O  0.09973721  0.86833191  0.19531644    -0.55400
C563        C  0.14894484  0.94403512  0.20059879     0.84600
O564        O  0.98475062  0.94549263  0.19711386    -0.57300
O565        O  0.99291443  0.89602649  0.23163516    -0.60600
In566      In  0.46236660  0.91439616  0.20405702     1.36900
C567        C  0.44601775  0.85939787  0.17656112     0.77100
O568        O  0.52132051  0.89951647  0.24254487    -0.61400
O569        O  0.43795677  0.90741354  0.25493495    -0.52300
C570        C  0.52216567  0.96147288  0.18385856     0.69700
O571        O  0.49129806  0.94627806  0.16512499    -0.47200
C572        C  0.37142065  0.94587928  0.20421534     0.74400
O573        O  0.48122387  0.87795237  0.16559734    -0.59000
O574        O  0.40320873  0.94564355  0.22810353    -0.49100
O575        O  0.42110893  0.86861910  0.20153940    -0.55400
C576        C  0.48473304  0.90053400  0.26475305     0.84600
O577        O  0.53017279  0.94908817  0.21085188    -0.57300
O578        O  0.38667687  0.93038334  0.17989218    -0.60600
In579      In  0.11957600  0.77336651  0.13066368     1.36900
C580        C  0.03874983  0.77177334  0.08599553     0.77100
O581        O  0.12375872  0.72219605  0.12939515    -0.61400
O582        O  0.07780670  0.74251220  0.16756963    -0.52300
C583        C  0.23331499  0.77472238  0.12863664     0.69700
O584        O  0.20410595  0.77582581  0.10321180    -0.47200
C585        C  0.09426096  0.82813003  0.15587667     0.74400
O586        O  0.08911704  0.77322804  0.07793794    -0.59000
O587        O  0.10687077  0.80601545  0.17334302    -0.49100
O588        O  0.03053849  0.77031869  0.11627970    -0.55400
C589        C  0.09340642  0.71828967  0.15407503     0.84600
O590        O  0.20463025  0.77336065  0.15436126    -0.57300
O591        O  0.09707604  0.82272468  0.12568487    -0.60600
In592      In  0.40932600  0.77553616  0.13382433     1.36900
C593        C  0.49288598  0.77759428  0.09074378     0.77100
O594        O  0.42898897  0.82572496  0.13113996    -0.61400
O595        O  0.42408126  0.80619680  0.17789007    -0.52300
C596        C  0.29554451  0.77484334  0.12925502     0.69700
O597        O  0.32699201  0.77747268  0.10468377    -0.47200
C598        C  0.43705609  0.72041439  0.15485068     0.74400
O599        O  0.44299608  0.77737849  0.08209715    -0.59000
O600        O  0.43199489  0.74303671  0.17370651    -0.49100
O601        O  0.49973111  0.77689381  0.12119531    -0.55400
C602        C  0.43334112  0.82966119  0.16147434     0.84600
O603        O  0.32200861  0.77229499  0.15530669    -0.57300
O604        O  0.42620781  0.72562452  0.12548660    -0.60600
In605      In  0.06054675  0.63360318  0.19453169     1.36900
C606        C  0.07914243  0.68793516  0.16662746     0.77100
O607        O  0.00979987  0.65045931  0.23638979    -0.61400
O608        O  0.09282374  0.63944735  0.24494873    -0.52300
C609        C  0.99562687  0.58643890  0.17903239     0.69700
O610        O  0.00338187  0.59542246  0.20780815    -0.47200
C611        C  0.14899771  0.60119167  0.18748439     0.74400
O612        O  0.03473127  0.68140151  0.18100985    -0.59000
O613        O  0.13432795  0.61251045  0.21449362    -0.49100
O614        O  0.11161777  0.66631388  0.16453199    -0.55400
C615        C  0.04785581  0.64798902  0.25700231     0.84600
O616        O  0.01240163  0.60487623  0.15782364    -0.57300
O617        O  0.11777066  0.60638871  0.16394784    -0.60600
In618      In  0.46473737  0.63337920  0.18802102     1.36900
C619        C  0.45138613  0.69011149  0.16657858     0.77100
O620        O  0.38691673  0.62437630  0.16152205    -0.61400
O621        O  0.40088649  0.60077046  0.20514758    -0.52300
C622        C  0.52268591  0.58602394  0.16665439     0.69700
O623        O  0.53467042  0.60055875  0.19236628    -0.47200
C624        C  0.48420862  0.64405907  0.25039589     0.74400
O625        O  0.47734656  0.67054798  0.15006306    -0.59000
O626        O  0.43962678  0.63325297  0.23973252    -0.49100
O627        O  0.43623858  0.68124697  0.19413947    -0.55400
C628        C  0.36975849  0.60501218  0.18143603     0.84600
O629        O  0.48984240  0.59971999  0.14885373    -0.57300
O630        O  0.52035694  0.64908423  0.22854904    -0.60600
In631      In  0.96805707  0.63557311  0.45558135     1.36900
C632        C  0.95278471  0.69252066  0.97485780     0.77100
O633        O  0.03222818  0.64842864  0.41785896    -0.61400
O634        O  0.94998310  0.63974245  0.40330222    -0.52300
C635        C  0.02275847  0.58859885  0.47840833     0.69700
O636        O  0.02867085  0.61332084  0.97824644    -0.47200
C637        C  0.87341752  0.60614476  0.45253892     0.74400
O638        O  0.97699694  0.68986170  0.94778104    -0.59000
O639        O  0.90743347  0.60615169  0.42940676    -0.49100
O640        O  0.93613334  0.68294883  0.45500951    -0.55400
C641        C  0.99794637  0.64704285  0.39471271     0.84600
O642        O  0.04274236  0.60551615  0.45670322    -0.57300
O643        O  0.91285747  0.60937798  0.97422584    -0.60600
In644      In  0.55845942  0.63437247  0.44703859     1.36900
C645        C  0.57305375  0.69301316  0.98680565     0.77100
O646        O  0.63588338  0.63027808  0.98985704    -0.61400
O647        O  0.62409782  0.60726554  0.42329692    -0.52300
C648        C  0.49851574  0.58528636  0.46258098     0.69700
O649        O  0.53913801  0.60214674  0.00424644    -0.47200
C650        C  0.53203161  0.64913968  0.38740164     0.74400
O651        O  0.58892054  0.68344298  0.95946412    -0.59000
O652        O  0.57889833  0.64018933  0.39516929    -0.49100
O653        O  0.60189124  0.67959458  0.44968651    -0.55400
C654        C  0.65048295  0.60414837  0.44920382     0.84600
O655        O  0.49194613  0.59943156  0.43651349    -0.57300
O656        O  0.49791696  0.65139751  0.41087500    -0.60600
In657      In  0.56471972  0.91054702  0.46101315     1.36900
C658        C  0.57874308  0.86153517  0.98463733     0.77100
O659        O  0.50419738  0.89289267  0.42435073    -0.61400
O660        O  0.58471502  0.90608831  0.40875974    -0.52300
C661        C  0.50353738  0.95789513  0.47768226     0.69700
O662        O  0.52182627  0.94869116  0.99995150    -0.47200
C663        C  0.65779611  0.93939627  0.47205289     0.74400
O664        O  0.54015572  0.87753246  0.99580658    -0.59000
O665        O  0.63622232  0.93749097  0.44432873    -0.49100
O666        O  0.60986841  0.86686228  0.46011391    -0.55400
C667        C  0.53788075  0.89625737  0.40084403     0.84600
O668        O  0.51337674  0.95021060  0.44863841    -0.57300
O669        O  0.62667711  0.93164837  0.99440375    -0.60600
In670      In  0.97368732  0.91157568  0.45555151     1.36900
C671        C  0.94450710  0.86064220  0.98175654     0.77100
O672        O  0.89755129  0.93457932  0.98908591    -0.61400
O673        O  0.89278951  0.92660006  0.43870862    -0.52300
C674        C  0.03729453  0.96037071  0.46599888     0.69700
O675        O  0.00940470  0.94579559  0.99034445    -0.47200
C676        C  0.98409561  0.89717867  0.39310767     0.74400
O677        O  0.91876881  0.87012364  0.95766859    -0.59000
O678        O  0.93930261  0.90450762  0.40629980    -0.49100
O679        O  0.99729943  0.86273447  0.46587147    -0.55400
C680        C  0.88124331  0.93989124  0.46522658     0.84600
O681        O  0.01899311  0.95262151  0.43862488    -0.57300
O682        O  0.02376648  0.89532975  0.41275416    -0.60600
In683      In  0.62101298  0.77801927  0.02278381     1.36900
C684        C  0.53937431  0.77831733  0.06719283     0.77100
O685        O  0.60463756  0.82830344  0.02771438    -0.61400
O686        O  0.60510596  0.80267913  0.47835259    -0.52300
C687        C  0.73491297  0.77716208  0.02525203     0.69700
O688        O  0.70502077  0.77869781  0.05062081    -0.47200
C689        C  0.59006003  0.72314182  0.99944185     0.74400
O690        O  0.58948577  0.77758342  0.07535362    -0.59000
O691        O  0.60880540  0.74090187  0.47531469    -0.49100
O692        O  0.53179901  0.77936309  0.03685477    -0.55400
C693        C  0.59430381  0.83200118  0.99797972     0.84600
O694        O  0.70691122  0.77634250  0.99957687    -0.57300
O695        O  0.59931758  0.72837342  0.02916310    -0.60600
In696      In  0.91052238  0.77506811  0.01875461     1.36900
C697        C  0.99273959  0.77249469  0.06240360     0.77100
O698        O  0.91344774  0.72384569  0.01733895    -0.61400
O699        O  0.92917941  0.74286230  0.48064645    -0.52300
C700        C  0.79703900  0.77626400  0.02440663     0.69700
O701        O  0.82833346  0.77739974  0.04894892    -0.47200
C702        C  0.93289086  0.83043693  0.99517595     0.74400
O703        O  0.94253186  0.77206139  0.07081822    -0.59000
O704        O  0.95452629  0.80383783  0.48495966    -0.49100
O705        O  0.00044853  0.77419700  0.03206475    -0.55400
C706        C  0.93697403  0.72188364  0.98988678     0.84600
O707        O  0.82352591  0.77423141  0.99797701    -0.57300
O708        O  0.93580879  0.82456422  0.02506058    -0.60600
C709        C  0.73935668  0.96401974  0.44883437    -0.09700
C710        C  0.71337163  0.95174298  0.47638277     0.06500
C711        C  0.74492169  0.94523912  0.50407464    -0.03400
C712        C  0.80183871  0.94582744  0.50137360    -0.07900
C713        C  0.82712284  0.95229602  0.47146471     0.05600
C714        C  0.79606155  0.96393043  0.44599884    -0.02900
Br715      Br  0.81797447  0.98404559  0.90605580    -0.02600
H716        H  0.71565505  0.97058780  0.42793670     0.09500
H717        H  0.82586336  0.93767405  0.52146388     0.07600
Br718      Br  0.71427554  0.93125748  0.54455400    -0.03000
C719        C  0.46362389  0.53680739  0.43824274    -0.10900
C720        C  0.48145010  0.55285541  0.46621779     0.06500
C721        C  0.51790412  0.53809022  0.01726158    -0.03400
C722        C  0.51381158  0.50650264  0.01596727    -0.07900
C723        C  0.48588280  0.98895165  0.48620036     0.05600
C724        C  0.46508747  0.50514696  0.43661042    -0.02900
Br725      Br  0.40844948  0.98618942  0.43246106    -0.02600
H726        H  0.45342736  0.54889363  0.41635337     0.09500
H727        H  0.51695004  0.99973123  0.02846940     0.07600
Br728      Br  0.57246962  0.55448913  0.04643138    -0.03000
C729        C  0.07405553  0.50920452  0.46372240    -0.09700
C730        C  0.05622003  0.99201136  0.47205895     0.06500
C731        C  0.02659559  0.51573039  0.99790243    -0.03400
C732        C  0.03102869  0.54731590  0.99531704    -0.07900
C733        C  0.04146263  0.55741502  0.48521078     0.05600
C734        C  0.07478234  0.54092594  0.46312974    -0.02900
Br735      Br  0.11723596  0.55976600  0.42923448    -0.02600
H736        H  0.09302422  0.99579728  0.42427078     0.09500
H737        H  0.01156511  0.56136657  0.01379182     0.07600
Br738      Br  0.96401847  0.99445099  0.03348091    -0.03000
C739        C  0.78930118  0.58749125  0.47927980    -0.09700
C740        C  0.81867542  0.59232210  0.45024386     0.06500
C741        C  0.79122469  0.58968029  0.42016859    -0.03400
C742        C  0.73423202  0.58917639  0.42011672    -0.07900
C743        C  0.70484005  0.59064074  0.44957984     0.05600
C744        C  0.73234417  0.58600140  0.47906064    -0.02900
Br745      Br  0.69455791  0.57962074  0.51968742    -0.02600
H746        H  0.81033796  0.58731824  0.50244941     0.09500
H747        H  0.71329574  0.59098367  0.39704252     0.07600
Br748      Br  0.82758624  0.59090008  0.37848711    -0.03000
C749        C  0.46451003  0.64715157  0.34273066    -0.09700
C750        C  0.51781932  0.65399681  0.35296837     0.06500
C751        C  0.55805518  0.66140246  0.32938754    -0.03400
C752        C  0.54573020  0.65903402  0.29618167    -0.07900
C753        C  0.49345174  0.64971961  0.28573740     0.05600
C754        C  0.45182502  0.64509001  0.30957338    -0.02900
Br755      Br  0.37685535  0.63525635  0.29944613    -0.02600
H756        H  0.43299308  0.64187770  0.36059528     0.09500
H757        H  0.57774017  0.66382624  0.27846923     0.07600
Br758      Br  0.63029295  0.67533393  0.34098910    -0.03000
C759        C  0.06659739  0.64865825  0.34940844    -0.09700
C760        C  0.01227910  0.65220013  0.35999437     0.06500
C761        C  0.97181525  0.65829889  0.33658001    -0.03400
C762        C  0.98545601  0.65858213  0.30347250    -0.07900
C763        C  0.03885299  0.65271488  0.29257794     0.05600
C764        C  0.08026115  0.64880086  0.31611416    -0.02900
Br765      Br  0.15588063  0.64249741  0.30509171    -0.02600
H766        H  0.09830082  0.64440981  0.36699596     0.09500
H767        H  0.95327104  0.66229739  0.28605079     0.07600
Br768      Br  0.89665146  0.66625256  0.34746324    -0.03000
C769        C  0.22775733  0.58967425  0.15245033    -0.09700
C770        C  0.20218783  0.58692033  0.18300382     0.06500
C771        C  0.23353523  0.57888644  0.21011192    -0.03400
C772        C  0.29029878  0.58096190  0.20797568    -0.07900
C773        C  0.31551032  0.59072392  0.17908506     0.05600
C774        C  0.28456632  0.59181123  0.15028609    -0.02900
Br775      Br  0.31667562  0.59900470  0.10815107    -0.02600
H776        H  0.20383547  0.59412591  0.13089944     0.09500
H777        H  0.31409326  0.57817700  0.22996421     0.07600
Br778      Br  0.20136164  0.56837164  0.25137613    -0.03000
C779        C  0.54804841  0.88644115  0.30906989    -0.09700
C780        C  0.49562263  0.89537462  0.29972527     0.06500
C781        C  0.45576267  0.90105698  0.32436412    -0.03400
C782        C  0.46960870  0.89871566  0.35716879    -0.07900
C783        C  0.52285203  0.89173236  0.36637735     0.05600
C784        C  0.56204826  0.88481515  0.34200937    -0.02900
Br785      Br  0.63546931  0.87329393  0.35202338    -0.02600
H786        H  0.57893466  0.88164206  0.29072919     0.09500
H787        H  0.43941351  0.90441421  0.37562728     0.07600
Br788      Br  0.38280426  0.91476266  0.31618536    -0.03000
C789        C  0.51496006  0.50298112  0.14054088    -0.09700
C790        C  0.53809406  0.99343785  0.17704308     0.06500
C791        C  0.57319399  0.50865671  0.18767918    -0.03400
C792        C  0.57179716  0.54016000  0.18440641    -0.07900
C793        C  0.53847784  0.55374116  0.16110505     0.05600
C794        C  0.51152643  0.53453914  0.13808245    -0.02900
Br795      Br  0.46202127  0.54896065  0.10579820    -0.02600
H796        H  0.48657677  0.99483735  0.13457230     0.09500
H797        H  0.59317065  0.55415235  0.20227419     0.07600
Br798      Br  0.61414609  0.99454686  0.23210249    -0.03000
C799        C  0.03986074  0.88157565  0.34487161    -0.09700
C800        C  0.99031665  0.89279329  0.35731739     0.06500
C801        C  0.94965731  0.90167758  0.33501525    -0.03400
C802        C  0.96070165  0.90115023  0.30149672    -0.07900
C803        C  0.01154226  0.89196240  0.28945284     0.05600
C804        C  0.05049791  0.88086418  0.31130451    -0.02900
Br805      Br  0.11846319  0.86392854  0.29657524    -0.02600
H806        H  0.07104043  0.87390524  0.36130345     0.09500
H807        H  0.93049078  0.90964584  0.28490125     0.07600
Br808      Br  0.87935164  0.91683570  0.34783467    -0.03000
C809        C  0.95061540  0.50527276  0.19189998    -0.09700
C810        C  0.97801125  0.98972651  0.16294563     0.06500
C811        C  0.01196590  0.50819934  0.14530982    -0.03400
C812        C  0.00772500  0.53974860  0.14619248    -0.07900
C813        C  0.97931190  0.55461035  0.17145735     0.05600
C814        C  0.94865359  0.53693996  0.19366896    -0.02900
Br815      Br  0.90749497  0.55480041  0.22882515    -0.02600
H816        H  0.91959771  0.99101645  0.20289489     0.09500
H817        H  0.03216575  0.55283069  0.12910757     0.07600
Br818      Br  0.05156841  0.99127630  0.10560956    -0.03000
C819        C  0.23300524  0.96653892  0.17738828    -0.09700
C820        C  0.20359816  0.95727448  0.20509502     0.06500
C821        C  0.23101128  0.95461401  0.23508238    -0.03400
C822        C  0.28795933  0.95586002  0.23536586    -0.07900
C823        C  0.31738662  0.95947232  0.20622396     0.05600
C824        C  0.28999414  0.96817384  0.17799151    -0.02900
Br825      Br  0.32891718  0.98069120  0.13958601    -0.02600
H826        H  0.21200188  0.97016050  0.15462909     0.09500
H827        H  0.30898777  0.95005201  0.25754497     0.07600
Br828      Br  0.19503247  0.94350914  0.27510853    -0.03000
In829      In  0.06592531  0.90989307  0.69961616     1.36900
C830        C  0.08804674  0.85525175  0.67194161     0.77100
O831        O  0.12829884  0.93898422  0.67460844    -0.61400
O832        O  0.13801288  0.92996710  0.72489464    -0.52300
C833        C  0.00124359  0.95495891  0.68094511     0.69700
O834        O  0.02006332  0.93574436  0.66093436    -0.47200
C835        C  0.04449097  0.89563662  0.76056866     0.74400
O836        O  0.11916061  0.87794375  0.66951918    -0.59000
O837        O  0.09065961  0.90513098  0.75094823    -0.49100
O838        O  0.04346658  0.86082230  0.68634947    -0.55400
C839        C  0.15707819  0.94252212  0.69982053     0.84600
O840        O  0.00779159  0.94795640  0.71020567    -0.57300
O841        O  0.00893755  0.89268728  0.73833507    -0.60600
In842      In  0.47413993  0.91067999  0.69898946     1.36900
C843        C  0.45491904  0.85563940  0.67128157     0.77100
O844        O  0.53472953  0.89966874  0.73794437    -0.61400
O845        O  0.45037887  0.90293848  0.75084112    -0.52300
C846        C  0.53424944  0.95795858  0.67838737     0.69700
O847        O  0.52208676  0.93618000  0.65942996    -0.47200
C848        C  0.38062352  0.93955396  0.69666792     0.74400
O849        O  0.42489414  0.87798763  0.66746850    -0.59000
O850        O  0.40202872  0.93165166  0.72304867    -0.49100
O851        O  0.49725691  0.86151439  0.68779706    -0.55400
C852        C  0.49881921  0.89923720  0.76045178     0.84600
O853        O  0.52271597  0.95317355  0.70770871    -0.57300
O854        O  0.40772991  0.93273305  0.67149875    -0.60600
In855      In  0.12530060  0.76994821  0.63327358     1.36900
C856        C  0.04327732  0.77372500  0.59019302     0.77100
O857        O  0.09967633  0.72098767  0.62418062    -0.61400
O858        O  0.11029841  0.73532997  0.67321358    -0.52300
C859        C  0.23871293  0.76816270  0.62962433     0.69700
O860        O  0.20865311  0.76908524  0.60453562    -0.47200
C861        C  0.10303451  0.82491307  0.65917857     0.74400
O862        O  0.09311325  0.77157341  0.58133184    -0.59000
O863        O  0.08718245  0.80055557  0.67216499    -0.49100
O864        O  0.03609709  0.77452361  0.62062354    -0.55400
C865        C  0.09669559  0.71404807  0.65382784     0.84600
O866        O  0.21094087  0.76766779  0.65575740    -0.57300
O867        O  0.13292646  0.82116924  0.63425405    -0.60600
In868      In  0.41478290  0.77018383  0.63301653     1.36900
C869        C  0.49608287  0.77091264  0.58758749     0.77100
O870        O  0.41207664  0.82146295  0.63260226    -0.61400
O871        O  0.45399289  0.80114594  0.67126710    -0.52300
C872        C  0.30096871  0.76821875  0.62954152     0.69700
O873        O  0.33164422  0.76810976  0.60442387    -0.47200
C874        C  0.44105725  0.71743588  0.66082663     0.74400
O875        O  0.44584011  0.76905854  0.57993453    -0.59000
O876        O  0.42787818  0.74066494  0.67710217    -0.49100
O877        O  0.50399751  0.77266643  0.61782127    -0.55400
C878        C  0.44038431  0.82534503  0.65796064     0.84600
O879        O  0.32822682  0.76878759  0.65555941    -0.57300
O880        O  0.43779151  0.72054439  0.63038276    -0.60600
In881      In  0.06393897  0.62539326  0.68330759     1.36900
C882        C  0.08109973  0.68324162  0.66474692     0.77100
O883        O  0.00894548  0.64039833  0.72405853    -0.61400
O884        O  0.08587992  0.62096738  0.73515629    -0.52300
C885        C  0.00138225  0.57836033  0.66276243     0.69700
O886        O  0.99229974  0.59252180  0.68901611    -0.47200
C887        C  0.16011195  0.60109703  0.67242311     0.74400
O888        O  0.04879246  0.66541876  0.64959681    -0.59000
O889        O  0.13516622  0.59852669  0.69924039    -0.49100
O890        O  0.10116029  0.67209689  0.68982468    -0.55400
C891        C  0.04263944  0.63297152  0.74589896     0.84600
O892        O  0.03571087  0.59152845  0.64461436    -0.57300
O893        O  0.13437275  0.61491598  0.65091383    -0.60600
In894      In  0.47655910  0.63459357  0.70264223     1.36900
C895        C  0.45752258  0.68887209  0.67620280     0.77100
O896        O  0.42214663  0.61603469  0.66399910    -0.61400
O897        O  0.39514684  0.61421920  0.71338978    -0.52300
C898        C  0.53475985  0.58492169  0.69190128     0.69700
O899        O  0.50070002  0.58807915  0.71477223    -0.47200
C900        C  0.50173122  0.64692433  0.76370063     0.74400
O901        O  0.48981615  0.67003438  0.66315077    -0.59000
O902        O  0.45410565  0.64006806  0.75430991    -0.49100
O903        O  0.43906753  0.68096920  0.70353494    -0.55400
C904        C  0.38463004  0.60910004  0.68379721     0.84600
O905        O  0.54349965  0.60855676  0.67533861    -0.57300
O906        O  0.53759052  0.64872970  0.74115494    -0.60600
In907      In  0.96939012  0.63802666  0.94500261     1.36900
C908        C  0.95156997  0.69038272  0.48307182     0.77100
O909        O  0.02875048  0.65007878  0.90542648    -0.61400
O910        O  0.94504372  0.64042080  0.89333401    -0.52300
C911        C  0.03294234  0.59117724  0.95853614     0.69700
O912        O  0.97999569  0.59877503  0.49147553    -0.47200
C913        C  0.87522984  0.60984968  0.95358431     0.74400
O914        O  0.97861846  0.67034803  0.49711670    -0.59000
O915        O  0.88594935  0.62457640  0.92818630    -0.49100
O916        O  0.94189768  0.66763342  0.98784105    -0.55400
C917        C  0.99302054  0.64650543  0.88326521     0.84600
O918        O  0.01126151  0.59534354  0.93141509    -0.57300
O919        O  0.88842875  0.62095676  0.47744975    -0.60600
In920      In  0.55651458  0.63588501  0.96513415     1.36900
C921        C  0.57958164  0.68865271  0.47561062     0.77100
O922        O  0.62927480  0.61642149  0.47399538    -0.61400
O923        O  0.61956661  0.60406069  0.94728084    -0.52300
C924        C  0.50199272  0.58815632  0.98905530     0.69700
O925        O  0.52767346  0.59957683  0.48296735    -0.47200
C926        C  0.53872375  0.64196665  0.90220645     0.74400
O927        O  0.54354242  0.67059166  0.48672473    -0.59000
O928        O  0.58178105  0.63152626  0.91395319    -0.49100
O929        O  0.54403578  0.67417413  0.00252947    -0.55400
C930        C  0.65263171  0.61078878  0.96967188     0.84600
O931        O  0.48424783  0.60257457  0.96505175    -0.57300
O932        O  0.50255678  0.64915004  0.92332624    -0.60600
In933      In  0.55855108  0.91720077  0.96193981     1.36900
C934        C  0.58454037  0.85543058  0.48378318     0.77100
O935        O  0.50998937  0.89888250  0.91977933    -0.61400
O936        O  0.58754034  0.91957002  0.91036036    -0.52300
C937        C  0.48844133  0.96041899  0.98079921     0.69700
O938        O  0.51809634  0.93881800  0.49842841    -0.47200
C939        C  0.64821753  0.94913266  0.97392908     0.74400
O940        O  0.54679435  0.87170386  0.49560853    -0.59000
O941        O  0.62225349  0.95109173  0.94765322    -0.49100
O942        O  0.60447854  0.87329998  0.96133041    -0.55400
C943        C  0.54549747  0.90671533  0.89862840     0.84600
O944        O  0.48423269  0.94630954  0.95405198    -0.57300
O945        O  0.63028402  0.92729230  0.49448550    -0.60600
In946      In  0.96091824  0.91535979  0.95577810     1.36900
C947        C  0.95862882  0.85826910  0.48589919     0.77100
O948        O  0.91746986  0.93891136  0.48686279    -0.61400
O949        O  0.88739038  0.93909900  0.93821725    -0.52300
C950        C  0.01934550  0.96511109  0.96858276     0.69700
O951        O  0.03100538  0.94042825  0.48754768    -0.47200
C952        C  0.98829379  0.89870561  0.89633419     0.74400
O953        O  0.93190862  0.88149255  0.49264748    -0.59000
O954        O  0.94132307  0.90771540  0.90435547    -0.49100
O955        O  0.98012359  0.87905072  0.99291766    -0.55400
C956        C  0.86916038  0.94471782  0.96634869     0.84600
O957        O  0.00823141  0.95618694  0.94013251    -0.57300
O958        O  0.02243815  0.89780468  0.91953001    -0.60600
In959      In  0.62505406  0.77113084  0.51959180     1.36900
C960        C  0.54225850  0.77089974  0.56363659     0.77100
O961        O  0.60889906  0.82125094  0.52610098    -0.61400
O962        O  0.60006406  0.80852427  0.98052564    -0.52300
C963        C  0.73894934  0.77145824  0.52478928     0.69700
O964        O  0.70718841  0.77094852  0.54936450    -0.47200
C965        C  0.59598722  0.71770645  0.49134977     0.74400
O966        O  0.59235788  0.77047328  0.57181037    -0.59000
O967        O  0.59891401  0.74553262  0.98130047    -0.49100
O968        O  0.53488173  0.77128927  0.53323185    -0.55400
C969        C  0.59931166  0.82568437  0.49645328     0.84600
O970        O  0.71278266  0.77140180  0.49845393    -0.57300
O971        O  0.60022531  0.72129006  0.52176916    -0.60600
In972      In  0.91484439  0.77417744  0.52350871     1.36900
C973        C  0.99686792  0.77449795  0.56709204     0.77100
O974        O  0.93244179  0.72429074  0.52803680    -0.61400
O975        O  0.94488209  0.74702186  0.97636711    -0.52300
C976        C  0.80114819  0.77226468  0.52560788     0.69700
O977        O  0.83028150  0.77302940  0.55111336    -0.47200
C978        C  0.94339516  0.82841879  0.49923388     0.74400
O979        O  0.94682082  0.77539016  0.57577640    -0.59000
O980        O  0.91772002  0.80834262  0.97752858    -0.49100
O981        O  0.00425780  0.77371734  0.53671042    -0.55400
C982        C  0.93783089  0.71992399  0.49771966     0.84600
O983        O  0.82988869  0.77244642  0.49988479    -0.57300
O984        O  0.91596673  0.82537787  0.52523260    -0.60600
C985        C  0.72943109  0.97377577  0.95017887    -0.09700
C986        C  0.70305837  0.96253525  0.97810273     0.06500
C987        C  0.73447540  0.95645728  0.00588831    -0.03400
C988        C  0.79108649  0.95486014  0.00270649    -0.07900
C989        C  0.81629250  0.95914632  0.97226956     0.05600
C990        C  0.78604356  0.97186497  0.94686952    -0.02900
Br991      Br  0.82841334  0.97719657  0.40579813    -0.02600
H992        H  0.70585113  0.98037050  0.92923937     0.09500
H993        H  0.81445452  0.94690505  0.02316670     0.07600
Br994      Br  0.70312062  0.94621022  0.04747210    -0.03000
C995        C  0.45060010  0.54050459  0.97438738    -0.10900
C996        C  0.48741905  0.55574167  0.99541906     0.06500
C997        C  0.49395404  0.53601514  0.49424846    -0.03400
C998        C  0.49352926  0.50428733  0.49287326    -0.07900
C999        C  0.46486135  0.99098145  0.98691737     0.05600
C1000       C  0.44806679  0.50873660  0.97239683    -0.02900
Br1001     Br  0.38753703  0.98172289  0.93320667    -0.02600
H1002       H  0.42657817  0.55331540  0.95745658     0.09500
H1003       H  0.53963377  0.99197486  0.52756560     0.07600
Br1004     Br  0.51835903  0.55452431  0.53405156    -0.03000
C1005       C  0.07287952  0.51038608  0.94575312    -0.09700
C1006       C  0.03418888  0.99722073  0.97516812     0.06500
C1007       C  0.01294008  0.50991868  0.51049400    -0.03400
C1008       C  0.01406162  0.54150222  0.51007011    -0.07900
C1009       C  0.05245135  0.56071626  0.96706356     0.05600
C1010       C  0.07652269  0.54192758  0.94308085    -0.02900
Br1011     Br  0.11056003  0.55844927  0.90475664    -0.02600
H1012       H  0.08126403  0.00116179  0.93068561     0.09500
H1013       H  0.98840561  0.55354862  0.52744020     0.07600
Br1014     Br  0.00129043  0.98953072  0.53559861    -0.03000
C1015       C  0.79948631  0.60313789  0.99178811    -0.09700
C1016       C  0.82084419  0.59766423  0.96053126     0.06500
C1017       C  0.78618981  0.58748337  0.93541647    -0.03400
C1018       C  0.72987726  0.58792610  0.94045293    -0.07900
C1019       C  0.70825835  0.59919917  0.96994807     0.05600
C1020       C  0.74324157  0.60445588  0.99667162    -0.02900
Br1021     Br  0.71790434  0.61684778  0.03922778    -0.02600
H1022       H  0.82635937  0.61009666  0.01157830     0.09500
H1023       H  0.70322131  0.58253243  0.92000792     0.07600
Br1024     Br  0.81348801  0.57535210  0.89329439    -0.03000
C1025       C  0.48339312  0.65767911  0.85485670    -0.09700
C1026       C  0.53198187  0.64543101  0.86652832     0.06500
C1027       C  0.57309539  0.63678191  0.84366216    -0.03400
C1028       C  0.56371440  0.63937114  0.81022752    -0.07900
C1029       C  0.51408224  0.65021715  0.79873523     0.05600
C1030       C  0.47424160  0.66017411  0.82139501    -0.02900
Br1031     Br  0.40694020  0.67802895  0.80815403    -0.02600
H1032       H  0.45194524  0.66510267  0.87180254     0.09500
H1033       H  0.59450406  0.63149832  0.79305782     0.07600
Br1034     Br  0.64260089  0.62026698  0.85538242    -0.03000
C1035       C  0.05930397  0.63766734  0.83828315    -0.09700
C1036       C  0.00693659  0.64677500  0.84814333     0.06500
C1037       C  0.96769378  0.65281260  0.82414573    -0.03400
C1038       C  0.98048074  0.64833258  0.79116383    -0.07900
C1039       C  0.03217509  0.63804679  0.78122000     0.05600
C1040       C  0.07234269  0.63326169  0.80529938    -0.02900
Br1041     Br  0.14589035  0.62076545  0.79569994    -0.02600
H1042       H  0.08988599  0.63293642  0.85641789     0.09500
H1043       H  0.94949143  0.65278992  0.77321795     0.07600
Br1044     Br  0.89658934  0.66830621  0.83456696    -0.03000
C1045       C  0.24784146  0.60897995  0.64463805    -0.09700
C1046       C  0.21749480  0.59276289  0.66787998     0.06500
C1047       C  0.24505978  0.57517123  0.69074411    -0.03400
C1048       C  0.30169248  0.57830611  0.69351456    -0.07900
C1049       C  0.33082072  0.59835024  0.67345093     0.05600
C1050       C  0.30420153  0.61232749  0.64751592    -0.02900
Br1051     Br  0.33976104  0.64120086  0.61953055    -0.02600
H1052       H  0.22726328  0.62225560  0.62655407     0.09500
H1053       H  0.32249064  0.56675600  0.71293263     0.07600
Br1054     Br  0.20763314  0.54825028  0.72000908    -0.03000
C1055       C  0.56463958  0.90699803  0.80590256    -0.09700
C1056       C  0.51270049  0.89700673  0.79552674     0.06500
C1057       C  0.47382769  0.88803719  0.81929409    -0.03400
C1058       C  0.48645290  0.89044366  0.85243940    -0.07900
C1059       C  0.53724614  0.90198879  0.86298876     0.05600
C1060       C  0.57720170  0.90975241  0.83913718    -0.02900
Br1061     Br  0.64920076  0.92507626  0.84946328    -0.02600
H1062       H  0.59503445  0.91399074  0.78807765     0.09500
H1063       H  0.45551304  0.88390010  0.87010053     0.07600
Br1064     Br  0.40262528  0.87209985  0.80856531    -0.03000
C1065       C  0.54139309  0.50794654  0.65315108    -0.09700
C1066       C  0.55087412  0.98864844  0.66766100     0.06500
C1067       C  0.57625543  0.50563490  0.70818500    -0.03400
C1068       C  0.57612184  0.53732209  0.71007025    -0.07900
C1069       C  0.55670172  0.55456939  0.68428942     0.05600
C1070       C  0.54274042  0.53967408  0.65493033    -0.02900
Br1071     Br  0.51596943  0.56160372  0.61868028    -0.02600
H1072       H  0.49347687  0.98795667  0.62820230     0.09500
H1073       H  0.58689268  0.54842507  0.73281065     0.07600
Br1074     Br  0.63222424  0.99081770  0.71906271    -0.03000
C1075       C  0.05777222  0.89207920  0.85258374    -0.09700
C1076       C  0.00250551  0.89180581  0.86200912     0.06500
C1077       C  0.96193463  0.88803047  0.83779669    -0.03400
C1078       C  0.97704927  0.88747430  0.80493048    -0.07900
C1079       C  0.03204009  0.89046905  0.79537438     0.05600
C1080       C  0.07291923  0.89133618  0.81965740    -0.02900
Br1081     Br  0.15009676  0.89204323  0.81017280    -0.02600
H1082       H  0.08944087  0.89426913  0.87082371     0.09500
H1083       H  0.94520022  0.88600138  0.78674251     0.07600
Br1084     Br  0.88494845  0.88399788  0.84727941    -0.03000
C1085       C  0.94505371  0.50041012  0.68061235    -0.09700
C1086       C  0.98082510  0.98531753  0.67196365     0.06500
C1087       C  0.01287383  0.49704601  0.63740395    -0.03400
C1088       C  0.01273962  0.52859968  0.63488352    -0.07900
C1089       C  0.98210652  0.54660532  0.65661820     0.05600
C1090       C  0.94422455  0.53197636  0.67753145    -0.02900
Br1091     Br  0.89217792  0.55399148  0.70340264    -0.02600
H1092       H  0.92843211  0.98920680  0.71445064     0.09500
H1093       H  0.04131313  0.53916851  0.61800921     0.07600
Br1094     Br  0.05541059  0.98366373  0.61563357    -0.03000
C1095       C  0.23898322  0.95719010  0.66859745    -0.09700
C1096       C  0.21216384  0.95618663  0.69891917     0.06500
C1097       C  0.24300282  0.96025043  0.72759189    -0.03400
C1098       C  0.29977753  0.95885036  0.72572965    -0.07900
C1099       C  0.32605178  0.95309164  0.69579131     0.05600
C1100       C  0.29579488  0.95516547  0.66669008    -0.02900
Br1101     Br  0.32712062  0.95115888  0.62373625    -0.02600
H1102       H  0.21569193  0.95551404  0.64623272     0.09500
H1103       H  0.32281140  0.95917449  0.74822196     0.07600
Br1104     Br  0.21068941  0.96423915  0.77026129    -0.03000
loop_ 
_geom_bond_atom_site_label_1 
_geom_bond_atom_site_label_2 
_geom_bond_distance 
_geom_bond_site_symmetry_2 
_ccdc_geom_bond_type 
In1           O3   2.229       .  S
In1           O4   2.234       .  S
In1          O12   2.281   1_455  S
In1           O6   2.236       .  S
In1           O8   2.291       .  S
In1           O9   2.205       .  S
In1          O10   2.264       .  S
In1          O13   2.260   1_455  S
C2            O8   1.263       .  A
C2           O10   1.254       .  A
C2           C33   1.481       .  S
O3           C11   1.259       .  A
O4           C11   1.256       .  A
C5           O12   1.263   1_455  A
C5            O6   1.255       .  A
C5          C258   1.494   1_455  S
C7            O9   1.261       .  A
C7           O13   1.270   1_455  A
C7          C251   1.477       .  S
C11         C268   1.458       .  S
In14         O16   2.277       .  S
In14         O17   2.195       .  S
In14         O25   2.251       .  S
In14         O19   2.286       .  S
In14         O21   2.296       .  S
In14         O22   2.209       .  S
In14         O23   2.260       .  S
In14         O26   2.242       .  S
C15          O21   1.263       .  A
C15          O23   1.253       .  A
C15          C50   1.478       .  S
O16          C24   1.271       .  A
O17          C24   1.257       .  A
C18          O25   1.255       .  A
C18          O19   1.262       .  A
C18         C238   1.495       .  S
C20          O22   1.258       .  A
C20          O26   1.260       .  A
C20         C271   1.468       .  S
C24         C228   1.485       .  S
In27         O29   2.264       .  S
In27         O30   2.280       .  S
In27         O38   2.305       .  S
In27         O32   2.346       .  S
In27         O34   2.292       .  S
In27         O35   2.270       .  S
In27         O36   2.262       .  S
In27         O39   2.270       .  S
C28          O34   1.271       .  A
C28          O36   1.258       .  A
C28         C145   1.488   1_455  S
O29          C37   1.261       .  A
O30          C37   1.262       .  A
C31          O38   1.264       .  A
C31          O32   1.269       .  A
C31          C44   1.522       .  S
C33          O35   1.265       .  A
C33          O39   1.261       .  A
C37          C54   1.480       .  S
In40         O42   2.265       .  S
In40         O43   2.271       .  S
In40         O51   2.304       .  S
In40         O45   2.347       .  S
In40         O47   2.286       .  S
In40         O48   2.279       .  S
In40         O49   2.262       .  S
In40         O52   2.267       .  S
C41          O47   1.271       .  A
C41          O49   1.258       .  A
C41         C132   1.486       .  S
O42          C50   1.262       .  A
O43          C50   1.262       .  A
C44          O51   1.263       .  A
C44          O45   1.269       .  A
C46          O48   1.263       .  A
C46          O52   1.260       .  A
C46          C67   1.480       .  S
In53         O55   2.235       .  S
In53         O56   2.233       .  S
In53         O64   2.280       .  S
In53         O58   2.248   1_455  S
In53         O60   2.294       .  S
In53         O61   2.220       .  S
In53         O62   2.259       .  S
In53         O65   2.225       .  S
C54          O60   1.264       .  A
C54          O62   1.255       .  A
O55          C63   1.267       .  A
O56          C63   1.262       .  A
C57          O64   1.263   1_655  A
C57          O58   1.256       .  A
C57         C261   1.489       .  S
C59          O61   1.261       .  A
C59          O65   1.262       .  A
C59         C218   1.467       .  S
C63         C211   1.483       .  S
In66         O68   2.226       .  S
In66         O69   2.242       .  S
In66         O77   2.270       .  S
In66         O71   2.253       .  S
In66         O73   2.276       .  S
In66         O74   2.219       .  S
In66         O75   2.263       .  S
In66         O78   2.244       .  S
C67          O73   1.266       .  A
C67          O75   1.258       .  A
O68          C76   1.254       .  A
O69          C76   1.259       .  A
C70          O77   1.261       .  A
C70          O71   1.256       .  A
C70         C241   1.486       .  S
C72          O74   1.263       .  A
C72          O78   1.271       .  A
C72         C201   1.488       .  S
C76         C221   1.471       .  S
In79         O81   2.259   1_655  S
In79         O82   2.192       .  S
In79         O90   2.269   1_655  S
In79         O87   2.222       .  S
In79         O88   2.243       .  S
In79        O360   2.258       .  S
In79        O362   2.301       .  S
In79        O367   2.219       .  S
C80          O86   1.263       .  A
C80         O364   1.253       .  A
C80         C154   1.474       .  S
O81          C89   1.271       .  A
O82          C89   1.262   1_655  A
C83          O90   1.259       .  A
C83         O360   1.259   1_455  A
C83         C181   1.494       .  S
O84        In355   2.253       .  S
O84         C359   1.257   1_655  A
C85          O87   1.256       .  A
C85         O367   1.259       .  A
C85         C188   1.468       .  S
O86        In355   2.281       .  S
O88         C356   1.250       .  A
C89         C208   1.473       .  S
O91        In355   2.216       .  S
O91         C361   1.258       .  A
In92         O95   2.229       .  S
In92        O103   2.269       .  S
In92        O100   2.210       .  S
In92        O101   2.283       .  S
In92        O104   2.254       .  S
In92        O370   2.218       .  S
In92        O373   2.250       .  S
In92        O375   2.236       .  S
C93          O99   1.254       .  A
C93         O377   1.260       .  A
C93         C137   1.479       .  S
O94        In368   2.221       .  S
O94         C378   1.255       .  A
O95         C102   1.259       .  A
C96         O103   1.260       .  A
C96         O373   1.257       .  A
C96         C168   1.494       .  S
O97        In368   2.294       .  S
O97         C372   1.266       .  A
C98         O100   1.262       .  A
C98         O104   1.271       .  A
C98         C198   1.480       .  S
O99        In368   2.268       .  S
O101        C369   1.266       .  A
C102        O370   1.256       .  A
C102        C191   1.462       .  S
In105       O107   2.235       .  S
In105       O108   2.206       .  S
In105       O116   2.214       .  S
In105       O113   2.196       .  S
In105       O114   2.233       .  S
In105       O386   2.285       .  S
In105       O388   2.273       .  S
In105       O393   2.225       .  S
C106        O112   1.266       .  A
C106        O390   1.254       .  A
C106        C141   1.477       .  S
O107        C115   1.271       .  A
O108        C115   1.263       .  A
C109        O116   1.258       .  A
C109        O386   1.272       .  A
C109        C171   1.482       .  S
O110       In381   2.249   1_554  S
O110        C385   1.259   1_554  A
C111        O113   1.262       .  A
C111        O393   1.259       .  A
C111        C158   1.454       .  S
O112       In381   2.288       .  S
O114        C382   1.258       .  A
C115        C231   1.474       .  S
O117       In381   2.214       .  S
O117        C387   1.257       .  A
In118       O121   2.211       .  S
In118       O129   2.245   1_655  S
In118       O126   2.208       .  S
In118       O127   2.242       .  S
In118       O130   2.230   1_655  S
In118       O396   2.238       .  S
In118       O399   2.269   1_655  S
In118       O401   2.271       .  S
C119        O125   1.255       .  A
C119        O403   1.261       .  A
C119        C150   1.486       .  S
O120       In394   2.226       .  S
O120        C404   1.261       .  A
O121        C128   1.256       .  A
C122        O129   1.255       .  A
C122        O399   1.261       .  A
C122        C178   1.483       .  S
O123       In394   2.293   1_455  S
O123        C398   1.262       .  A
C124        O126   1.263       .  A
C124        O130   1.272   1_655  A
C124        C248   1.482       .  S
O125       In394   2.283       .  S
O127        C395   1.256       .  A
C128        O396   1.257       .  A
C128        C161   1.463       .  S
In131       O133   2.269       .  S
In131       O142   2.306   1_554  S
In131       O136   2.351       .  S
In131       O138   2.288       .  S
In131       O140   2.258       .  S
In131       O143   2.264       .  S
In131       O410   2.266   1_554  S
In131       O415   2.269   1_554  S
C132        O138   1.272       .  A
C132        O140   1.258       .  A
O133        C141   1.260   1_554  A
O134       In407   2.261       .  S
O134        C417   1.260       .  A
C135        O142   1.263   1_554  A
C135        O136   1.269       .  A
C135        C148   1.523       .  S
C137        O143   1.263   1_556  A
C137        O415   1.262       .  A
O139       In407   2.251       .  S
O139        C413   1.261       .  A
C141        O410   1.263       .  A
In144       O146   2.260       .  S
In144       O155   2.305   1_554  S
In144       O149   2.349       .  S
In144       O151   2.289       .  S
In144       O153   2.267       .  S
In144       O156   2.282       .  S
In144       O423   2.267   1_554  S
In144       O428   2.276   1_554  S
C145        O151   1.271       .  A
C145        O153   1.258       .  A
O146        C154   1.259   1_554  A
O147       In420   2.259       .  S
O147        C430   1.262       .  A
C148        O155   1.263   1_554  A
C148        O149   1.269       .  A
C150        O156   1.263   1_556  A
C150        O428   1.261       .  A
O152       In420   2.267       .  S
O152        C426   1.262       .  A
C154        O423   1.264       .  A
C157        C158   1.399       .  A
C157        C162   1.389       .  A
C157        H164   1.083       .  S
C158        C159   1.407       .  A
C159        C160   1.394       .  A
C159       Br166   1.922       .  S
C160        C161   1.404       .  A
C160        H165   1.083       .  S
C161        C162   1.408       .  A
C162       Br439   1.922       .  S
Br163       C438   1.920       .  S
C167        C168   1.409       .  A
C167        C172   1.404       .  A
C167        H174   1.085       .  S
C168        C445   1.419       .  A
C169        C170   1.403       .  A
C169        C444   1.412   1_554  A
C169       Br176   1.920       .  S
C170        C999   1.408   1_544  A
C170        H727   1.084   1_545  S
C171        C998   1.401       .  A
C171        C724   1.409       .  A
C172        C723   1.410   1_545  A
C172       Br725   1.919   1_545  S
Br173       C724   1.920       .  S
H175        C722   1.084       .  S
C177        C182   1.404       .  A
C177        C730   1.406   1_545  A
C177        H736   1.086   1_545  S
C178        C729   1.406       .  A
C178       C1007   1.412       .  A
C179        C180   1.401   1_554  A
C179       C1006   1.412   1_544  A
C179       Br738   1.921   1_445  S
C180        C457   1.407       .  A
C180        H185   1.085   1_456  S
C181        C182   1.417       .  A
C181        C456   1.407       .  A
C182       Br183   1.923       .  S
H184        C729   1.086       .  S
Br186       C731   1.918   1_654  S
C187        C188   1.404       .  A
C187        C192   1.391       .  A
C187        H194   1.085       .  S
C188        C189   1.413       .  A
C189        C190   1.392       .  A
C189       Br196   1.923       .  S
C190        C191   1.400       .  A
C190        H195   1.084       .  S
C191        C192   1.408       .  A
C192       Br193   1.921       .  S
C197        C198   1.401       .  A
C197        C202   1.402       .  A
C197        H204   1.084       .  S
C198        C199   1.412       .  A
C199        C200   1.399       .  A
C199       Br206   1.921       .  S
C200        C201   1.404       .  A
C200        H205   1.084       .  S
C201        C202   1.418       .  A
C202       Br203   1.922       .  S
C207        C208   1.401       .  A
C207        C212   1.403       .  A
C207        H214   1.083       .  S
C208        C209   1.409   1_455  A
C209        C210   1.395       .  A
C209       Br216   1.922       .  S
C210        C211   1.403   1_655  A
C210        H215   1.082       .  S
C211        C212   1.418       .  A
C212       Br213   1.922       .  S
C217        C218   1.400       .  A
C217        C222   1.392       .  A
C217        H224   1.085       .  S
C218        C219   1.406       .  A
C219        C220   1.394       .  A
C219       Br226   1.920       .  S
C220        C221   1.404       .  A
C220        H225   1.086       .  S
C221        C222   1.414       .  A
C222       Br223   1.922       .  S
C227        C228   1.406       .  A
C227        C232   1.402       .  A
C227        H234   1.083       .  S
C228        C229   1.421       .  A
C229        C230   1.393       .  A
C229       Br236   1.924       .  S
C230        C231   1.396       .  A
C230        H235   1.083       .  S
C231        C232   1.412       .  A
C232       Br233   1.921       .  S
C237        C242   1.401       .  A
C237        C790   1.407   1_545  A
C237        H796   1.081   1_545  S
C238        C789   1.406       .  A
C238        C791   1.414       .  A
C239        C240   1.405       .  A
C239        C790   1.415   1_545  A
C239       Br798   1.920   1_545  S
C240        C241   1.406       .  A
C240        H245   1.085       .  S
C241        C242   1.413       .  A
C242       Br243   1.922       .  S
H244        C789   1.081       .  S
Br246       C791   1.920       .  S
C247        C248   1.402   1_455  A
C247        C252   1.395       .  A
C247        H254   1.083       .  S
C248        C249   1.419       .  A
C249        C250   1.402       .  A
C249       Br256   1.924       .  S
C250        C251   1.402   1_655  A
C250        H255   1.083       .  S
C251        C252   1.411       .  A
C252       Br253   1.920       .  S
C257        C262   1.407       .  A
C257        C810   1.410   1_545  A
C257        H816   1.084   1_545  S
C258        C809   1.408       .  A
C258        C811   1.418   1_655  A
C259        C260   1.405   1_455  A
C259        C810   1.420   1_445  A
C259       Br818   1.921   1_545  S
C260        C261   1.404       .  A
C260        H265   1.086   1_655  S
C261        C262   1.410       .  A
C262       Br263   1.918       .  S
H264        C809   1.085       .  S
Br266       C811   1.923       .  S
C267        C268   1.402       .  A
C267        C272   1.395       .  A
C267        H274   1.084       .  S
C268        C269   1.405       .  A
C269        C270   1.390       .  A
C269       Br276   1.920       .  S
C270        C271   1.404       .  A
C270        H275   1.083       .  S
C271        C272   1.408       .  A
C272       Br273   1.920       .  S
In277       O279   2.230       .  S
In277       O280   2.230       .  S
In277       O288   2.265   1_455  S
In277       O282   2.263       .  S
In277       O284   2.282       .  S
In277       O285   2.188       .  S
In277       O286   2.263       .  S
In277       O289   2.272   1_455  S
C278        O284   1.264       .  A
C278        O286   1.254       .  A
C278        C309   1.477       .  S
O279        C287   1.256       .  A
O280        C287   1.255       .  A
C281        O288   1.259       .  A
C281        O282   1.259   1_655  A
C281        C534   1.491       .  S
C283        O285   1.259       .  A
C283        O289   1.272   1_455  A
C283        C527   1.478       .  S
C287        C544   1.467       .  S
In290       O292   2.240       .  S
In290       O293   2.214       .  S
In290       O301   2.276       .  S
In290       O295   2.263       .  S
In290       O297   2.294       .  S
In290       O298   2.224       .  S
In290       O299   2.250       .  S
In290       O302   2.218       .  S
C291        O297   1.266       .  A
C291        O299   1.253       .  A
C291        C326   1.478       .  S
O292        C300   1.270       .  A
O293        C300   1.262       .  A
C294        O301   1.260       .  A
C294        O295   1.257       .  A
C294        C514   1.496       .  S
C296        O298   1.260       .  A
C296        O302   1.259       .  A
C296        C547   1.467       .  S
C300        C504   1.479       .  S
In303       O305   2.275       .  S
In303       O306   2.275       .  S
In303       O314   2.304       .  S
In303       O308   2.344       .  S
In303       O310   2.295       .  S
In303       O311   2.270       .  S
In303       O312   2.252       .  S
In303       O315   2.260       .  S
C304        O310   1.271       .  A
C304        O312   1.257       .  A
C304        C421   1.484   1_455  S
O305        C313   1.262       .  A
O306        C313   1.261       .  A
C307        O314   1.264       .  A
C307        O308   1.269       .  A
C307        C320   1.521       .  S
C309        O311   1.265       .  A
C309        O315   1.261       .  A
C313        C330   1.481       .  S
In316       O318   2.273       .  S
In316       O319   2.268       .  S
In316       O327   2.308       .  S
In316       O321   2.352       .  S
In316       O323   2.278       .  S
In316       O324   2.282       .  S
In316       O325   2.258       .  S
In316       O328   2.275       .  S
C317        O323   1.272       .  A
C317        O325   1.261       .  A
C317        C408   1.485       .  S
O318        C326   1.260       .  A
O319        C326   1.264       .  A
C320        O327   1.260       .  A
C320        O321   1.267       .  A
C322        O324   1.263       .  A
C322        O328   1.258       .  A
C322        C343   1.481       .  S
In329       O331   2.244       .  S
In329       O332   2.218       .  S
In329       O340   2.282       .  S
In329       O334   2.250   1_455  S
In329       O336   2.296       .  S
In329       O337   2.211       .  S
In329       O338   2.259       .  S
In329       O341   2.227       .  S
C330        O336   1.266       .  A
C330        O338   1.254       .  A
O331        C339   1.267       .  A
O332        C339   1.260       .  A
C333        O340   1.263   1_655  A
C333        O334   1.256       .  A
C333        C537   1.493       .  S
C335        O337   1.261       .  A
C335        O341   1.263       .  A
C335        C494   1.466       .  S
C339        C487   1.481       .  S
In342       O344   2.221       .  S
In342       O345   2.237       .  S
In342       O353   2.258       .  S
In342       O347   2.274       .  S
In342       O349   2.291       .  S
In342       O350   2.198       .  S
In342       O351   2.258       .  S
In342       O354   2.254       .  S
C343        O349   1.266       .  A
C343        O351   1.254       .  A
O344        C352   1.257       .  A
O345        C352   1.257       .  A
C346        O353   1.258       .  A
C346        O347   1.261       .  A
C346        C517   1.497       .  S
C348        O350   1.260       .  A
C348        O354   1.272       .  A
C348        C477   1.483       .  S
C352        C497   1.467       .  S
In355       O357   2.246   1_655  S
In355       O358   2.206       .  S
In355       O366   2.272   1_655  S
In355       O363   2.230       .  S
In355       O364   2.254       .  S
C356        O362   1.265       .  A
C356        C430   1.475       .  S
O357        C365   1.270   1_455  A
O358        C365   1.264       .  A
C359        O366   1.258       .  A
C359        C457   1.493       .  S
C361        O363   1.259       .  A
C361        C464   1.467       .  S
C365        C484   1.474   1_655  S
In368       O371   2.216       .  S
In368       O379   2.235       .  S
In368       O376   2.206       .  S
In368       O377   2.290       .  S
In368       O380   2.243       .  S
C369        O375   1.254       .  A
C369        C413   1.470       .  S
O371        C378   1.259       .  A
C372        O379   1.254       .  A
C372        C444   1.486       .  S
C374        O376   1.264       .  A
C374        O380   1.272       .  A
C374        C474   1.474       .  S
C378        C467   1.461       .  S
In381       O383   2.255       .  S
In381       O384   2.199       .  S
In381       O392   2.274       .  S
In381       O389   2.231       .  S
In381       O390   2.251       .  S
C382        O388   1.270       .  A
C382        C417   1.472       .  S
O383        C391   1.272       .  A
O384        C391   1.260       .  A
C385        O392   1.261       .  A
C385        C447   1.498       .  S
C387        O389   1.258       .  A
C387        C434   1.464       .  S
C391        C507   1.483       .  S
In394       O397   2.207       .  S
In394       O405   2.255   1_655  S
In394       O402   2.235       .  S
In394       O403   2.297       .  S
In394       O406   2.227   1_655  S
C395        O401   1.267       .  A
C395        C426   1.471       .  S
O397        C404   1.261       .  A
C398        O405   1.255       .  A
C398        C454   1.498       .  S
C400        O402   1.263       .  A
C400        O406   1.269   1_655  A
C400        C524   1.485       .  S
C404        C437   1.460       .  S
In407       O409   2.270       .  S
In407       O418   2.296       .  S
In407       O412   2.356       .  S
In407       O414   2.278       .  S
In407       O416   2.258       .  S
In407       O419   2.270       .  S
C408        O414   1.272       .  A
C408        O416   1.261       .  A
O409        C417   1.260       .  A
C411        O418   1.259       .  A
C411        O412   1.268       .  A
C411        C424   1.518       .  S
C413        O419   1.260       .  A
In420       O422   2.275       .  S
In420       O431   2.297       .  S
In420       O425   2.355       .  S
In420       O427   2.269       .  S
In420       O429   2.263   1_655  S
In420       O432   2.260       .  S
C421        O427   1.272       .  A
C421        O429   1.261   1_655  A
O422        C430   1.260       .  A
C424        O431   1.259       .  A
C424        O425   1.268       .  A
C426        O432   1.259       .  A
C433        C434   1.403       .  A
C433        C438   1.392       .  A
C433        H440   1.084       .  S
C434        C435   1.410       .  A
C435        C436   1.391       .  A
C435       Br442   1.922   1_556  S
C436        C437   1.400       .  A
C436        H441   1.085   1_556  S
C437        C438   1.406       .  A
C443        C444   1.406       .  A
C443        C448   1.406       .  A
C443        H450   1.085       .  S
C445        C446   1.403       .  A
C445       Br452   1.922       .  S
C446        C723   1.402   1_545  A
C446       H1003   1.084   1_545  S
C447        C722   1.406   1_556  A
C447       C1000   1.415       .  A
C448        C999   1.415   1_545  A
C448      Br1001   1.920   1_545  S
Br449      C1000   1.920       .  S
H451        C998   1.084       .  S
C453       C1006   1.405   1_545  A
C453        C458   1.403       .  A
C453       H1012   1.086       .  S
C454       C1005   1.409       .  A
C454        C731   1.418       .  A
C455        C730   1.411   1_545  A
C455        C456   1.403       .  A
C455      Br1014   1.917   1_545  S
C456        H461   1.085       .  S
C457        C458   1.417       .  A
C458       Br459   1.922       .  S
H460       C1005   1.084       .  S
Br462      C1007   1.923   1_655  S
C463        C464   1.404       .  A
C463        C468   1.391       .  A
C463        H470   1.087   1_556  S
C464        C465   1.409       .  A
C465        C466   1.391       .  A
C465       Br472   1.920       .  S
C466        C467   1.401       .  A
C466        H471   1.086       .  S
C467        C468   1.410       .  A
C468       Br469   1.924   1_556  S
C473        C474   1.398       .  A
C473        C478   1.397       .  A
C473        H480   1.084       .  S
C474        C475   1.410       .  A
C475        C476   1.399       .  A
C475       Br482   1.920       .  S
C476        C477   1.405       .  A
C476        H481   1.084       .  S
C477        C478   1.420       .  A
C478       Br479   1.925       .  S
C483        C484   1.401       .  A
C483        C488   1.400       .  A
C483        H490   1.083       .  S
C484        C485   1.410   1_455  A
C485        C486   1.396       .  A
C485       Br492   1.921       .  S
C486        C487   1.403   1_655  A
C486        H491   1.082       .  S
C487        C488   1.418       .  A
C488       Br489   1.923       .  S
C493        C494   1.401       .  A
C493        C498   1.392       .  A
C493        H500   1.085       .  S
C494        C495   1.409       .  A
C495        C496   1.394       .  A
C495       Br502   1.922       .  S
C496        C497   1.404       .  A
C496        H501   1.086       .  S
C497        C498   1.410       .  A
C498       Br499   1.921       .  S
C503        C504   1.400       .  A
C503        C508   1.397       .  A
C503        H510   1.083       .  S
C504        C505   1.414       .  A
C505        C506   1.400       .  A
C505       Br512   1.922       .  S
C506        C507   1.404       .  A
C506        H511   1.082       .  S
C507        C508   1.418       .  A
C508       Br509   1.924       .  S
C513       C1066   1.403   1_545  A
C513        C518   1.405       .  A
C513       H1072   1.079   1_545  S
C514       C1065   1.410       .  A
C514       C1067   1.417       .  A
C515       C1066   1.409   1_545  A
C515        C516   1.406       .  A
C515      Br1074   1.919   1_545  S
C516        C517   1.409       .  A
C516        H521   1.079       .  S
C517        C518   1.421       .  A
C518       Br519   1.923       .  S
H520       C1065   1.079       .  S
Br522      C1067   1.921       .  S
C523        C524   1.402   1_455  A
C523        C528   1.393       .  A
C523        H530   1.083       .  S
C524        C525   1.419       .  A
C525        C526   1.405       .  A
C525       Br532   1.921       .  S
C526        C527   1.402   1_655  A
C526        H531   1.083       .  S
C527        C528   1.412       .  A
C528       Br529   1.923       .  S
C533       C1086   1.408   1_545  A
C533        C538   1.406       .  A
C533       H1092   1.085   1_545  S
C534       C1085   1.406       .  A
C534       C1087   1.416   1_655  A
C535       C1086   1.415   1_445  A
C535        C536   1.404   1_455  A
C535      Br1094   1.918   1_545  S
C536        C537   1.405       .  A
C536        H541   1.084   1_655  S
C537        C538   1.414       .  A
C538       Br539   1.921       .  S
H540       C1085   1.085       .  S
Br542      C1087   1.923       .  S
C543        C544   1.403       .  A
C543        C548   1.391       .  A
C543        H550   1.084       .  S
C544        C545   1.410       .  A
C545        C546   1.392       .  A
C545       Br552   1.921       .  S
C546        C547   1.403       .  A
C546        H551   1.084       .  S
C547        C548   1.410       .  A
C548       Br549   1.922       .  S
In553       O555   2.229       .  S
In553       O556   2.226       .  S
In553       O564   2.283   1_455  S
In553       O558   2.262       .  S
In553       O560   2.300       .  S
In553       O561   2.201       .  S
In553       O562   2.259       .  S
In553       O565   2.263   1_455  S
C554        O560   1.266       .  A
C554        O562   1.253       .  A
C554        C585   1.482       .  S
O555        C563   1.261       .  A
O556        C563   1.256       .  A
C557        O564   1.263       .  A
C557        O558   1.259   1_655  A
C557        C810   1.502       .  S
C559        O561   1.258       .  A
C559        O565   1.271   1_455  A
C559        C803   1.473       .  S
C563        C820   1.462       .  S
In566       O568   2.257       .  S
In566       O569   2.190       .  S
In566       O577   2.259       .  S
In566       O571   2.249       .  S
In566       O573   2.290       .  S
In566       O574   2.231       .  S
In566       O575   2.252       .  S
In566       O578   2.234       .  S
C567        O573   1.265       .  A
C567        O575   1.254       .  A
C567        C602   1.477       .  S
O568        C576   1.272       .  A
O569        C576   1.258       .  A
C570        O577   1.260       .  A
C570        O571   1.261       .  A
C570        C790   1.492       .  S
C572        O574   1.255       .  A
C572        O578   1.260       .  A
C572        C823   1.460       .  S
C576        C780   1.482       .  S
In579       O581   2.270       .  S
In579       O582   2.279       .  S
In579       O590   2.301       .  S
In579       O584   2.346       .  S
In579       O586   2.292       .  S
In579       O587   2.277       .  S
In579       O588   2.260       .  S
In579       O591   2.275       .  S
C580        O586   1.272       .  A
C580        O588   1.259       .  A
C580        C697   1.490   1_455  S
O581        C589   1.262       .  A
O582        C589   1.263       .  A
C583        O590   1.263       .  A
C583        O584   1.270       .  A
C583        C596   1.521       .  S
C585        O587   1.265       .  A
C585        O591   1.259       .  A
C589        C606   1.482       .  S
In592       O594   2.271       .  S
In592       O595   2.273       .  S
In592       O603   2.305       .  S
In592       O597   2.351       .  S
In592       O599   2.271       .  S
In592       O600   2.271       .  S
In592       O601   2.265       .  S
In592       O604   2.276       .  S
C593        O599   1.272       .  A
C593        O601   1.262       .  A
C593        C684   1.485       .  S
O594        C602   1.259       .  A
O595        C602   1.263       .  A
C596        O603   1.260       .  A
C596        O597   1.268       .  A
C598        O600   1.264       .  A
C598        O604   1.260       .  A
C598        C619   1.480       .  S
In605       O607   2.236       .  S
In605       O608   2.229       .  S
In605       O616   2.280       .  S
In605       O610   2.247       .  S
In605       O612   2.295       .  S
In605       O613   2.211       .  S
In605       O614   2.267       .  S
In605       O617   2.227       .  S
C606        O612   1.263       .  A
C606        O614   1.254       .  A
O607        C615   1.269       .  A
O608        C615   1.262       .  A
C609        O616   1.263   1_655  A
C609        O610   1.255   1_655  A
C609        C813   1.488       .  S
C611        O613   1.261       .  A
C611        O617   1.261       .  A
C611        C770   1.463       .  S
C615        C763   1.486       .  S
In618       O620   2.225       .  S
In618       O621   2.226       .  S
In618       O629   2.263       .  S
In618       O623   2.270       .  S
In618       O625   2.298       .  S
In618       O626   2.203       .  S
In618       O627   2.252       .  S
In618       O630   2.251       .  S
C619        O625   1.267       .  A
C619        O627   1.253       .  A
O620        C628   1.258       .  A
O621        C628   1.257       .  A
C622        O629   1.258       .  A
C622        O623   1.262       .  A
C622        C793   1.500       .  S
C624        O626   1.262       .  A
C624        O630   1.272       .  A
C624        C753   1.486       .  S
C628        C773   1.463       .  S
In631       O633   2.266   1_655  S
In631       O634   2.203       .  S
In631       O642   2.276   1_655  S
In631       O912   2.236       .  S
In631       O914   2.293       .  S
In631       O639   2.230       .  S
In631       O640   2.250       .  S
In631       O919   2.227       .  S
C632        O638   1.259       .  A
C632        O916   1.255       .  A
C632        C706   1.486       .  S
O633        C641   1.271   1_455  A
O634        C641   1.260       .  A
C635        O642   1.262       .  A
C635        O912   1.257   1_455  A
C635        C733   1.492       .  S
O636       In907   2.297   1_455  S
O636        C911   1.267       .  A
C637        O639   1.256       .  A
C637        O919   1.260       .  A
C637        C740   1.466       .  S
O638       In907   2.302       .  S
O640        C908   1.252       .  A
C641        C760   1.483   1_655  S
O643       In907   2.218       .  S
O643        C913   1.255       .  A
In644       O922   2.224       .  S
In644       O647   2.227       .  S
In644       O655   2.267       .  S
In644       O925   2.264       .  S
In644       O927   2.300       .  S
In644       O652   2.199       .  S
In644       O653   2.254       .  S
In644       O656   2.249       .  S
C645        O651   1.254       .  A
C645        O929   1.267   1_556  A
C645        C689   1.480       .  S
O646       In920   2.214       .  S
O646        C930   1.258       .  A
O647        C654   1.257       .  A
C648        O655   1.259       .  A
C648        O925   1.260       .  A
C648        C720   1.499       .  S
O649       In920   2.242   1_554  S
O649        C924   1.256   1_554  A
C650        O652   1.262       .  A
C650        O656   1.272       .  A
C650        C750   1.476       .  S
O651       In920   2.254       .  S
O653        C921   1.254       .  A
C654        O922   1.258       .  A
C654        C743   1.465       .  S
In657       O659   2.242       .  S
In657       O660   2.201       .  S
In657       O668   2.240       .  S
In657       O938   2.276       .  S
In657       O940   2.281       .  S
In657       O665   2.210       .  S
In657       O666   2.241       .  S
In657       O945   2.229       .  S
C658        O664   1.267       .  A
C658        O942   1.255       .  A
C658        C693   1.481       .  S
O659        C667   1.271       .  A
O660        C667   1.261       .  A
C661        O668   1.256       .  A
C661        O938   1.264       .  A
C661        C723   1.484       .  S
O662       In933   2.266       .  S
O662        C937   1.260       .  A
C663        O665   1.258       .  A
C663        O945   1.256       .  A
C663        C710   1.467       .  S
O664       In933   2.292       .  S
O666        C934   1.256       .  A
C667        C783   1.473       .  S
O669       In933   2.221       .  S
O669        C939   1.257       .  A
In670       O948   2.231       .  S
In670       O673   2.214       .  S
In670       O681   2.231   1_655  S
In670       O951   2.290   1_655  S
In670       O953   2.264       .  S
In670       O678   2.210       .  S
In670       O679   2.293       .  S
In670       O682   2.247   1_655  S
C671        O677   1.256       .  A
C671        O955   1.267       .  A
C671        C702   1.477       .  S
O672       In946   2.227       .  S
O672        C956   1.258       .  A
O673        C680   1.261       .  A
C674        O681   1.253       .  A
C674        O951   1.265       .  A
C674        C730   1.487       .  S
O675       In946   2.270   1_455  S
O675        C950   1.265       .  A
C676        O678   1.262       .  A
C676        O682   1.270   1_655  A
C676        C800   1.485       .  S
O677       In946   2.241       .  S
O679        C947   1.262       .  A
C680        O948   1.260       .  A
C680        C713   1.459       .  S
In683       O685   2.275       .  S
In683       O962   2.279   1_554  S
In683       O694   2.299   1_554  S
In683       O688   2.356       .  S
In683       O690   2.284       .  S
In683       O967   2.275   1_554  S
In683       O692   2.252       .  S
In683       O695   2.273       .  S
C684        O690   1.273       .  A
C684        O692   1.261       .  A
O685        C693   1.261   1_554  A
O686       In959   2.270       .  S
O686        C969   1.261       .  A
C687        O694   1.260   1_554  A
C687        O688   1.268       .  A
C687        C700   1.519       .  S
C689        O967   1.263       .  A
C689        O695   1.259   1_556  A
O691       In959   2.274       .  S
O691        C965   1.262       .  A
C693        O962   1.263       .  A
In696       O698   2.271       .  S
In696       O975   2.284   1_554  S
In696       O707   2.296   1_554  S
In696       O701   2.353       .  S
In696       O703   2.286       .  S
In696       O980   2.263   1_554  S
In696       O705   2.269   1_655  S
In696       O708   2.281       .  S
C697        O703   1.272       .  A
C697        O705   1.260   1_655  A
O698        C706   1.262   1_554  A
O699       In972   2.252       .  S
O699        C982   1.263       .  A
C700        O707   1.261   1_554  A
C700        O701   1.269       .  A
C702        O980   1.262       .  A
C702        O708   1.259   1_556  A
O704       In972   2.272       .  S
O704        C978   1.261       .  A
C706        O975   1.263       .  A
C709        C710   1.404       .  A
C709        C714   1.389       .  A
C709        H716   1.084       .  S
C710        C711   1.413       .  A
C711        C712   1.394       .  A
C711       Br718   1.922       .  S
C712        C713   1.400       .  A
C712        H717   1.085       .  S
C713        C714   1.404       .  A
C714       Br991   1.918       .  S
Br715       C990   1.922       .  S
C719        C720   1.409       .  A
C719        C724   1.404       .  A
C719        H726   1.084       .  S
C720        C997   1.417       .  A
C721        C996   1.420   1_554  A
C721        C722   1.402       .  A
C721       Br728   1.925       .  S
C729        C734   1.405       .  A
C731        C732   1.407       .  A
C732       C1009   1.403       .  A
C732        H737   1.085   1_556  S
C733       C1008   1.407       .  A
C733        C734   1.415       .  A
C734       Br735   1.920       .  S
C739        C740   1.403       .  A
C739        C744   1.392       .  A
C739        H746   1.084       .  S
C740        C741   1.411       .  A
C741        C742   1.392       .  A
C741       Br748   1.921       .  S
C742        C743   1.402       .  A
C742        H747   1.084       .  S
C743        C744   1.407       .  A
C744       Br745   1.921       .  S
C749        C750   1.399       .  A
C749        C754   1.398       .  A
C749        H756   1.084       .  S
C750        C751   1.412       .  A
C751        C752   1.399       .  A
C751       Br758   1.922       .  S
C752        C753   1.405       .  A
C752        H757   1.084       .  S
C753        C754   1.420       .  A
C754       Br755   1.923       .  S
C759        C760   1.403       .  A
C759        C764   1.403       .  A
C759        H766   1.083       .  S
C760        C761   1.415   1_455  A
C761        C762   1.396       .  A
C761       Br768   1.923       .  S
C762        C763   1.402   1_655  A
C762        H767   1.083       .  S
C763        C764   1.418       .  A
C764       Br765   1.922       .  S
C769        C770   1.402       .  A
C769        C774   1.392       .  A
C769        H776   1.085       .  S
C770        C771   1.408       .  A
C771        C772   1.391       .  A
C771       Br778   1.920       .  S
C772        C773   1.402       .  A
C772        H777   1.086       .  S
C773        C774   1.409       .  A
C774       Br775   1.921       .  S
C779        C780   1.404       .  A
C779        C784   1.399       .  A
C779        H786   1.082       .  S
C780        C781   1.420       .  A
C781        C782   1.395       .  A
C781       Br788   1.925       .  S
C782        C783   1.398       .  A
C782        H787   1.083       .  S
C783        C784   1.412       .  A
C784       Br785   1.921       .  S
C789        C794   1.407       .  A
C791        C792   1.405       .  A
C792        C793   1.408       .  A
C792        H797   1.085       .  S
C793        C794   1.421       .  A
C794       Br795   1.923       .  S
C799        C800   1.405   1_455  A
C799        C804   1.399       .  A
C799        H806   1.083       .  S
C800        C801   1.419       .  A
C801        C802   1.399       .  A
C801       Br808   1.920       .  S
C802        C803   1.397   1_655  A
C802        H807   1.083       .  S
C803        C804   1.411       .  A
C804       Br805   1.922       .  S
C809        C814   1.405       .  A
C811        C812   1.403       .  A
C812        C813   1.404   1_455  A
C812        H817   1.085       .  S
C813        C814   1.412       .  A
C814       Br815   1.919       .  S
C819        C820   1.402       .  A
C819        C824   1.393       .  A
C819        H826   1.084       .  S
C820        C821   1.412       .  A
C821        C822   1.392       .  A
C821       Br828   1.922       .  S
C822        C823   1.400       .  A
C822        H827   1.084       .  S
C823        C824   1.403       .  A
C824       Br825   1.918       .  S
In829       O831   2.233       .  S
In829       O832   2.219       .  S
In829       O840   2.256       .  S
In829       O834   2.281       .  S
In829       O836   2.280       .  S
In829       O837   2.208       .  S
In829       O838   2.293       .  S
In829       O841   2.238       .  S
C830        O836   1.256       .  A
C830        O838   1.261       .  A
C830        C861   1.485       .  S
O831        C839   1.262       .  A
O832        C839   1.259       .  A
C833        O840   1.256       .  A
C833        O834   1.263       .  A
C833       C1086   1.493   1_455  S
C835        O837   1.260       .  A
C835        O841   1.268       .  A
C835       C1079   1.477       .  S
C839       C1096   1.468       .  S
In842       O844   2.250       .  S
In842       O845   2.230       .  S
In842       O853   2.236       .  S
In842       O847   2.294       .  S
In842       O849   2.266       .  S
In842       O850   2.222       .  S
In842       O851   2.297       .  S
In842       O854   2.228       .  S
C843        O849   1.253       .  A
C843        O851   1.263       .  A
C843        C878   1.481       .  S
O844        C852   1.268       .  A
O845        C852   1.264       .  A
C846        O853   1.253       .  A
C846        O847   1.264       .  A
C846       C1066   1.485       .  S
C848        O850   1.262       .  A
C848        O854   1.257       .  A
C848       C1099   1.471       .  S
C852       C1056   1.485       .  S
In855       O857   2.275       .  S
In855       O858   2.283       .  S
In855       O866   2.297       .  S
In855       O860   2.345       .  S
In855       O862   2.279       .  S
In855       O863   2.281       .  S
In855       O864   2.257       .  S
In855       O867   2.273       .  S
C856        O862   1.272       .  A
C856        O864   1.259       .  A
C856        C973   1.484   1_455  S
O857        C865   1.260       .  A
O858        C865   1.267       .  A
C859        O866   1.264       .  A
C859        O860   1.270       .  A
C859        C872   1.521       .  S
C861        O863   1.264       .  A
C861        O867   1.262       .  A
C865        C882   1.486       .  S
In868       O870   2.274       .  S
In868       O871   2.276       .  S
In868       O879   2.301       .  S
In868       O873   2.353       .  S
In868       O875   2.300       .  S
In868       O876   2.274       .  S
In868       O877   2.264       .  S
In868       O880   2.279       .  S
C869        O875   1.271       .  A
C869        O877   1.257       .  A
C869        C960   1.490       .  S
O870        C878   1.262       .  A
O871        C878   1.260       .  A
C872        O879   1.262       .  A
C872        O873   1.269       .  A
C874        O876   1.263       .  A
C874        O880   1.261       .  A
C874        C895   1.484       .  S
In881       O883   2.236       .  S
In881       O884   2.209       .  S
In881       O892   2.272       .  S
In881       O886   2.273   1_455  S
In881       O888   2.300       .  S
In881       O889   2.230       .  S
In881       O890   2.260       .  S
In881       O893   2.216       .  S
C882        O888   1.268       .  A
C882        O890   1.254       .  A
O883        C891   1.271       .  A
O884        C891   1.263       .  A
C885        O892   1.259       .  A
C885        O886   1.258   1_455  A
C885       C1089   1.495   1_455  S
C887        O889   1.259       .  A
C887        O893   1.259       .  A
C887       C1046   1.465       .  S
C891       C1039   1.483       .  S
In894       O896   2.218       .  S
In894       O897   2.215       .  S
In894       O905   2.291       .  S
In894       O899   2.216       .  S
In894       O901   2.289       .  S
In894       O902   2.195       .  S
In894       O903   2.261       .  S
In894       O906   2.256       .  S
C895        O901   1.267       .  A
C895        O903   1.257       .  A
O896        C904   1.257       .  A
O897        C904   1.259       .  A
C898        O905   1.271       .  A
C898        O899   1.257       .  A
C898       C1069   1.483       .  S
C900        O902   1.260       .  A
C900        O906   1.271       .  A
C900       C1029   1.475       .  S
C904       C1049   1.456       .  S
In907       O909   2.233   1_655  S
In907       O910   2.210       .  S
In907       O918   2.225   1_655  S
In907       O915   2.227       .  S
In907       O916   2.280       .  S
C908        O914   1.263       .  A
C908        C982   1.474       .  S
O909        C917   1.272   1_455  A
O910        C917   1.266       .  A
C911        O918   1.253       .  A
C911       C1009   1.485       .  S
C913        O915   1.260       .  A
C913       C1016   1.454       .  S
C917       C1036   1.477   1_655  S
In920       O923   2.217       .  S
In920       O931   2.284       .  S
In920       O928   2.190       .  S
In920       O929   2.292   1_556  S
In920       O932   2.261       .  S
C921        O927   1.267       .  A
C921        C965   1.483       .  S
O923        C930   1.257       .  A
C924        O931   1.264       .  A
C924        C996   1.500       .  S
C926        O928   1.258       .  A
C926        O932   1.273       .  A
C926       C1026   1.484       .  S
C930       C1019   1.460       .  S
In933       O935   2.240       .  S
In933       O936   2.229       .  S
In933       O944   2.271       .  S
In933       O941   2.227       .  S
In933       O942   2.259       .  S
C934        O940   1.268       .  A
C934        C969   1.474       .  S
O935        C943   1.270       .  A
O936        C943   1.262       .  A
C937        O944   1.259       .  A
C937        C999   1.496       .  S
C939        O941   1.259       .  A
C939        C986   1.468       .  S
C943       C1059   1.488       .  S
In946       O949   2.225       .  S
In946       O957   2.231   1_655  S
In946       O954   2.187       .  S
In946       O955   2.287       .  S
In946       O958   2.245   1_655  S
C947        O953   1.253       .  A
C947        C978   1.479       .  S
O949        C956   1.256       .  A
C950        O957   1.257       .  A
C950       C1006   1.484       .  S
C952        O954   1.260       .  A
C952        O958   1.272   1_655  A
C952       C1076   1.476   1_655  S
C956        C989   1.467       .  S
In959       O961   2.272       .  S
In959       O970   2.305       .  S
In959       O964   2.357       .  S
In959       O966   2.280       .  S
In959       O968   2.269       .  S
In959       O971   2.283       .  S
C960        O966   1.272       .  A
C960        O968   1.262       .  A
O961        C969   1.259       .  A
C963        O970   1.259       .  A
C963        O964   1.267       .  A
C963        C976   1.520       .  S
C965        O971   1.260       .  A
In972       O974   2.268       .  S
In972       O983   2.297       .  S
In972       O977   2.348       .  S
In972       O979   2.287       .  S
In972       O981   2.255   1_655  S
In972       O984   2.268       .  S
C973        O979   1.272       .  A
C973        O981   1.257   1_655  A
O974        C982   1.262       .  A
C976        O983   1.263       .  A
C976        O977   1.270       .  A
C978        O984   1.262       .  A
C985        C986   1.403       .  A
C985        C990   1.392       .  A
C985        H992   1.084       .  S
C986        C987   1.410   1_556  A
C987        C988   1.391       .  A
C987       Br994   1.921       .  S
C988        C989   1.401   1_554  A
C988        H993   1.085       .  S
C989        C990   1.411       .  A
C995        C996   1.409       .  A
C995       C1000   1.409       .  A
C995       H1002   1.085       .  S
C997        C998   1.406       .  A
C997      Br1004   1.912       .  S
C1005      C1010   1.404       .  A
C1007      C1008   1.399       .  A
C1008      H1013   1.085   1_455  S
C1009      C1010   1.410       .  A
C1010     Br1011   1.921       .  S
C1015      C1016   1.399       .  A
C1015      C1020   1.389       .  A
C1015      H1022   1.086   1_556  S
C1016      C1017   1.404       .  A
C1017      C1018   1.390       .  A
C1017     Br1024   1.919       .  S
C1018      C1019   1.404       .  A
C1018      H1023   1.087       .  S
C1019      C1020   1.410       .  A
C1020     Br1021   1.922   1_556  S
C1025      C1026   1.403       .  A
C1025      C1030   1.398       .  A
C1025      H1032   1.083       .  S
C1026      C1027   1.422       .  A
C1027      C1028   1.398       .  A
C1027     Br1034   1.926       .  S
C1028      C1029   1.399       .  A
C1028      H1033   1.084       .  S
C1029      C1030   1.411       .  A
C1030     Br1031   1.921       .  S
C1035      C1036   1.402       .  A
C1035      C1040   1.399       .  A
C1035      H1042   1.083       .  S
C1036      C1037   1.410   1_455  A
C1037      C1038   1.398       .  A
C1037     Br1044   1.920       .  S
C1038      C1039   1.405   1_655  A
C1038      H1043   1.082       .  S
C1039      C1040   1.418       .  A
C1040     Br1041   1.924       .  S
C1045      C1046   1.402       .  A
C1045      C1050   1.388       .  A
C1045      H1052   1.084       .  S
C1046      C1047   1.409       .  A
C1047      C1048   1.394       .  A
C1047     Br1054   1.921       .  S
C1048      C1049   1.401       .  A
C1048      H1053   1.086       .  S
C1049      C1050   1.407       .  A
C1050     Br1051   1.924       .  S
C1055      C1056   1.405       .  A
C1055      C1060   1.403       .  A
C1055      H1062   1.083       .  S
C1056      C1057   1.412       .  A
C1057      C1058   1.398       .  A
C1057     Br1064   1.919       .  S
C1058      C1059   1.404       .  A
C1058      H1063   1.082       .  S
C1059      C1060   1.418       .  A
C1060     Br1061   1.924       .  S
C1065      C1070   1.406       .  A
C1067      C1068   1.405       .  A
C1068      C1069   1.403       .  A
C1068      H1073   1.081       .  S
C1069      C1070   1.406       .  A
C1070     Br1071   1.912       .  S
C1075      C1076   1.401       .  A
C1075      C1080   1.397       .  A
C1075      H1082   1.083       .  S
C1076      C1077   1.415   1_455  A
C1077      C1078   1.395       .  A
C1077     Br1084   1.924       .  S
C1078      C1079   1.401   1_655  A
C1078      H1083   1.083       .  S
C1079      C1080   1.416       .  A
C1080     Br1081   1.922       .  S
C1085      C1090   1.406       .  A
C1087      C1088   1.403       .  A
C1088      C1089   1.406   1_455  A
C1088      H1093   1.085       .  S
C1089      C1090   1.413       .  A
C1090     Br1091   1.918       .  S
C1095      C1096   1.402       .  A
C1095      C1100   1.394       .  A
C1095      H1102   1.084       .  S
C1096      C1097   1.409       .  A
C1097      C1098   1.391       .  A
C1097     Br1104   1.921       .  S
C1098      C1099   1.403       .  A
C1098      H1103   1.084       .  S
C1099      C1100   1.414       .  A
C1100     Br1101   1.922       .  S
