geometry optimzed in LAMMPS
_audit_creation_date              2020-11-30 
_audit_creation_method            'lammps2cif' 
_symmetry_space_group_name_H-M    'P1' 
_symmetry_Int_Tables_number       1 
_symmetry_cell_setting            triclinic 
loop_ 
_symmetry_equiv_pos_as_xyz 
  x,y,z 
_cell_length_a                    43.94469075 
_cell_length_b                    44.155719131006066 
_cell_length_c                    36.463586651291244 
_cell_angle_alpha                 90.31994445000069 
_cell_angle_beta                  89.66137261340745 
_cell_angle_gamma                 119.77932752375865 
loop_ 
_atom_site_label 
_atom_site_type_symbol 
_atom_site_fract_x 
_atom_site_fract_y 
_atom_site_fract_z 
_atom_site_charge 
C1          C  0.13441743  0.46641215  0.12204324     0.03500
C2          C  0.10814914  0.46368873  0.09780759    -0.12600
C3          C  0.10574001  0.49354493  0.08944133     0.01000
C4          C  0.12819418  0.02425815  0.10279601    -0.11100
C5          C  0.15227779  0.02647747  0.12871478     0.03500
C6          C  0.15773017  0.49910205  0.13761752    -0.10600
H7          H  0.08917431  0.43859848  0.08659227     0.09100
H8          H  0.12678718  0.04745441  0.09607613     0.06600
H9          H  0.17794163  0.50159085  0.15632286     0.06500
C10         C  0.24935349  0.22277448  0.20531388     0.03500
C11         C  0.27034057  0.22342774  0.23521141    -0.12600
C12         C  0.27150555  0.19299582  0.24474919     0.01000
C13         C  0.25237766  0.16276645  0.22358382    -0.11100
C14         C  0.23184517  0.16186999  0.19432364     0.03500
C15         C  0.22978863  0.19152276  0.18553311    -0.10600
H16         H  0.28478541  0.24702286  0.25129103     0.09100
H17         H  0.25326071  0.13920960  0.22974932     0.06600
H18         H  0.21233281  0.19003446  0.16384859     0.06500
C19         C  0.06117589  0.16169947  0.12904068     0.03500
C20         C  0.02785694  0.15201204  0.14397861    -0.12600
C21         C  0.49861403  0.12052433  0.13218068     0.01000
C22         C  0.50142972  0.10018818  0.10470721    -0.11100
C23         C  0.03351655  0.10924610  0.09033847     0.03500
C24         C  0.06376745  0.14003987  0.10167857    -0.10600
H25         H  0.02491039  0.16852303  0.16407593     0.09100
H26         H  0.47820428  0.07622118  0.09643261     0.06600
H27         H  0.08900510  0.14672564  0.08987783     0.06500
C28         C  0.30031515  0.02318591  0.20601512     0.03500
C29         C  0.33114846  0.03465588  0.18515523    -0.12600
C30         C  0.36070919  0.06687481  0.19256102     0.01000
C31         C  0.36015895  0.08720444  0.22147579    -0.11100
C32         C  0.33033295  0.07619460  0.24354006     0.03500
C33         C  0.29998793  0.04414510  0.23545188    -0.10600
H34         H  0.33240015  0.01818949  0.16373300     0.09100
H35         H  0.38371719  0.11185719  0.22694710     0.06600
H36         H  0.27669819  0.03519807  0.25226793     0.06500
C37         C  0.00666491  0.28014434  0.21763296     0.03500
C38         C  0.49788660  0.30276662  0.19999542    -0.12600
C39         C  0.46750879  0.30309046  0.21006559     0.01000
C40         C  0.44562864  0.28062916  0.23685497    -0.11100
C41         C  0.45249470  0.25612724  0.25329179     0.03500
C42         C  0.48252227  0.25445863  0.24191267    -0.10600
H43         H  0.01494946  0.32123444  0.17987511     0.09100
H44         H  0.42212773  0.28168381  0.24376548     0.06600
H45         H  0.48716177  0.23448778  0.25296743     0.06500
C46         C  0.36614356  0.39975423  0.14277999     0.03500
C47         C  0.38697849  0.42356914  0.11493290    -0.12600
C48         C  0.41806016  0.42471668  0.10299558     0.01000
C49         C  0.42868948  0.40309997  0.11908893    -0.11100
C50         C  0.40842789  0.37948458  0.14595568     0.03500
C51         C  0.37692132  0.37714962  0.15736947    -0.10600
H52         H  0.37923606  0.44105518  0.10283682     0.09100
H53         H  0.45310140  0.40455274  0.11054547     0.06600
H54         H  0.36093249  0.35775314  0.17754805     0.06500
C55         C  0.16328691  0.30443518  0.16754616     0.02700
C56         C  0.14751250  0.32569620  0.16949582     0.02700
C57         C  0.16865652  0.36262263  0.17230324     0.02700
C58         C  0.20537741  0.37794056  0.17771728     0.02700
C59         C  0.22112498  0.35663453  0.17495003     0.02700
C60         C  0.19979935  0.31966671  0.17372832     0.02700
O61         O  0.38680391  0.16405309  0.41142079    -0.78100
C62         C  0.36221461  0.24528543  0.40229233     0.82900
O63         O  0.26649790  0.10870946  0.36359351    -0.79200
O64         O  0.32017487  0.21730671  0.28709981    -0.80700
O65         O  0.42418002  0.20340209  0.28902776    -0.80500
O66         O  0.41192776  0.15328851  0.36370819    -0.79100
Zn67       Zn  0.34807360  0.17065073  0.39219032     1.55700
O68         O  0.40414562  0.24079647  0.29256826    -0.80500
Cd69       Cd  0.38636640  0.16266648  0.32103269     1.59700
Cd70       Cd  0.30161639  0.13579119  0.32095029     1.59600
O71         O  0.36339462  0.12066960  0.28617624    -0.80500
O72         O  0.34876116  0.17237578  0.33955544    -1.91000
Cd73       Cd  0.35889091  0.21999890  0.32328073     1.59900
O74         O  0.30567739  0.10023264  0.28573129    -0.80500
O75         O  0.36617064  0.25292131  0.36822638    -0.79100
C76         C  0.27300067  0.10985798  0.39778233     0.83400
C77         C  0.40937528  0.15703314  0.39806425     0.83100
O78         O  0.35465319  0.21516094  0.41367410    -0.78100
C79         C  0.42608427  0.23219509  0.28027526     0.83900
O80         O  0.30279781  0.13147257  0.41098705    -0.78200
C81         C  0.33279714  0.09961872  0.27407167     0.84000
C82         C  0.29231913  0.19057233  0.27557596     0.84300
O83         O  0.28256190  0.16005607  0.28784408    -0.80600
C84         C  0.33265947  0.44420837  0.54534077     0.03500
C85         C  0.31213151  0.42259437  0.57466910    -0.12600
C86         C  0.28028262  0.42129048  0.58428866     0.01000
C87         C  0.26991326  0.44203192  0.56533068    -0.11100
C88         C  0.29062959  0.46420456  0.53747966     0.03500
C89         C  0.32174491  0.46514987  0.52726817    -0.10600
H90         H  0.32047068  0.40663928  0.58916042     0.09100
H91         H  0.24540358  0.44104105  0.57240194     0.06600
H92         H  0.33784512  0.48273068  0.50570707     0.06500
C93         C  0.19396129  0.05906975  0.46040799     0.03500
C94         C  0.21556439  0.08229462  0.43274450    -0.12600
C95         C  0.24724241  0.08363500  0.42293831     0.01000
C96         C  0.25683165  0.06147988  0.44018102    -0.11100
C97         C  0.23520534  0.03771954  0.46657596     0.03500
C98         C  0.20377542  0.03637488  0.47665080    -0.10600
H99         H  0.20831080  0.09984343  0.41986707     0.09100
H100        H  0.28168845  0.06310111  0.43344775     0.06600
H101        H  0.18721273  0.01801290  0.49742433     0.06500
C102        C  0.13308564  0.18164738  0.55306736     0.03500
C103        C  0.13000035  0.20419175  0.57878855    -0.12600
C104        C  0.15968773  0.23664338  0.58733738     0.01000
C105        C  0.19159067  0.24643501  0.57006720    -0.11100
C106        C  0.19460317  0.22479508  0.54436586     0.03500
C107        C  0.16573711  0.19229815  0.53623589    -0.10600
H108        H  0.10486639  0.19723192  0.59097702     0.09100
H109        H  0.21435078  0.27157177  0.57619504     0.06600
H110        H  0.16850870  0.17557190  0.51620685     0.06500
C111        C  0.39121965  0.32270944  0.46785313     0.03500
C112        C  0.35916439  0.31176446  0.48614403    -0.12600
C113        C  0.32976311  0.27979432  0.47743423     0.01000
C114        C  0.33149164  0.25923789  0.44938455    -0.11100
C115        C  0.36246596  0.26992928  0.42976925     0.03500
C116        C  0.39258214  0.30167375  0.43899958    -0.10600
H117        H  0.35687818  0.32819078  0.50686209     0.09100
H118        H  0.30837013  0.23453277  0.44283239     0.06600
H119        H  0.41688420  0.30963380  0.42431503     0.06500
C120        C  0.07556201  0.39040351  0.54427844     0.03500
C121        C  0.09626645  0.39118463  0.57449886    -0.12600
C122        C  0.09699429  0.36061087  0.58441311     0.01000
C123        C  0.07672663  0.32985237  0.56481238    -0.11100
C124        C  0.05600861  0.32877481  0.53566541     0.03500
C125        C  0.05530597  0.35879864  0.52541638    -0.10600
H126        H  0.11225709  0.41533193  0.58922064     0.09100
H127        H  0.07754211  0.30641041  0.57188693     0.06600
H128        H  0.03903731  0.35756782  0.50259867     0.06500
C129        C  0.46095721  0.13141508  0.46226694     0.03500
C130        C  0.43595460  0.12833913  0.43590399    -0.12600
C131        C  0.43593634  0.15826777  0.42305347     0.01000
C132        C  0.45988182  0.19087765  0.43711477    -0.11100
C133        C  0.48435699  0.19425869  0.46318522     0.03500
C134        C  0.48578827  0.16488993  0.47478309    -0.10600
H135        H  0.41627754  0.10292692  0.42598142     0.09100
H136        H  0.45861275  0.21378916  0.42877733     0.06600
H137        H  0.00604550  0.17031956  0.49443649     0.06500
C138        C  0.49119593  0.46864717  0.49672449     0.02700
C139        C  0.47509539  0.48984844  0.49783222     0.02700
C140        C  0.99817752  0.02751733  0.49616870     0.02700
C141        C  0.03554972  0.04326494  0.49712299     0.02700
C142        C  0.05095873  0.02154994  0.49758586     0.02700
C143        C  0.02804380  0.48533746  0.49939489     0.02700
C144        C  0.28286443  0.28690581  0.79819720     0.03500
C145        C  0.25974577  0.28624304  0.77052769    -0.12600
C146        C  0.25909853  0.31724841  0.76167716     0.01000
C147        C  0.28064808  0.34772675  0.78152457    -0.11100
C148        C  0.30241173  0.34830645  0.80923733     0.03500
C149        C  0.30388658  0.31822286  0.81734972    -0.10600
H150        H  0.24285048  0.26221261  0.75606376     0.09100
H151        H  0.28025884  0.37165156  0.77602855     0.06600
H152        H  0.32163430  0.31923293  0.83847468     0.06500
C153        C  0.40434481  0.04703818  0.87808861     0.03500
C154        C  0.38311126  0.01493062  0.86030222    -0.12600
C155        C  0.38381228  0.48397195  0.87394227     0.01000
C156        C  0.40493153  0.48488347  0.90267233    -0.11100
C157        C  0.42913825  0.01880886  0.91594673     0.03500
C158        C  0.42754125  0.04884987  0.90605804    -0.10600
H159        H  0.36367368  0.01237817  0.84054028     0.09100
H160        H  0.40481808  0.46098596  0.90966726     0.06600
H161        H  0.44328346  0.07312827  0.92068144     0.06500
C162        C  0.22769924  0.48980446  0.80511259     0.03500
C163        C  0.22885257  0.46918212  0.77561409    -0.12600
C164        C  0.19827552  0.43775152  0.76577835     0.01000
C165        C  0.16751184  0.42737744  0.78607988    -0.11100
C166        C  0.16596376  0.44749209  0.81464230     0.03500
C167        C  0.19581402  0.47892861  0.82385862    -0.10600
H168        H  0.25303765  0.47761710  0.76054190     0.11800
H169        H  0.14392066  0.40300965  0.77980315     0.06600
H170        H  0.19421842  0.49516811  0.84531968     0.06500
C171        C  0.46500396  0.35072809  0.88334970     0.03500
C172        C  0.46431322  0.37348549  0.91060942    -0.12600
C173        C  0.49543506  0.40393878  0.92074582     0.01000
C174        C  0.02674642  0.41284307  0.90277906    -0.11100
C175        C  0.02769154  0.39102310  0.87578791     0.03500
C176        C  0.99705191  0.36017383  0.86680717    -0.10600
H177        H  0.43988334  0.36725033  0.92412329     0.09100
H178        H  0.05099097  0.43655580  0.90906604     0.06600
H179        H  0.99837794  0.34242177  0.84710535     0.06500
C180        C  0.15552554  0.10101482  0.86449615     0.03500
C181        C  0.13348715  0.07805817  0.89227518    -0.12600
C182        C  0.10370044  0.07933022  0.90430117     0.01000
C183        C  0.09380521  0.10064412  0.88573225    -0.11100
C184        C  0.11407675  0.12222542  0.85737479     0.03500
C185        C  0.14552040  0.12341823  0.84753020    -0.10600
H186        H  0.14046350  0.06065278  0.90591424     0.09100
H187        H  0.07016102  0.10103499  0.89362585     0.06600
H188        H  0.16261544  0.14265197  0.82778774     0.06500
C189        C  0.02000306  0.23036118  0.79686689     0.03500
C190        C  0.02931884  0.20691092  0.81217570    -0.12600
C191        C  0.06089370  0.20857479  0.80279730     0.01000
C192        C  0.08299601  0.23293942  0.77738005    -0.11100
C193        C  0.07479832  0.25664475  0.76080068     0.03500
C194        C  0.04314155  0.25574779  0.77120630    -0.10600
H195        H  0.01190462  0.18729894  0.83153345     0.09100
H196        H  0.10733463  0.23336675  0.77097166     0.06600
H197        H  0.03659620  0.27426375  0.75955628     0.06500
C198        C  0.36252107  0.20606222  0.85733583     0.02700
C199        C  0.32527080  0.18997553  0.85377140     0.02700
C200        C  0.30484707  0.15281195  0.85349532     0.02700
C201        C  0.32172841  0.13241223  0.85186132     0.02700
C202        C  0.35869816  0.14860427  0.85593514     0.02700
C203        C  0.37943999  0.18562243  0.85493627     0.02700
O204        O  0.05541428  0.99849890  0.07717168    -0.78100
C205        C  0.03357091  0.08344734  0.06473003     0.82900
O206        O  0.43419504  0.44259628  0.04131067    -0.79200
O207        O  0.47933679  0.04598357  0.95573858    -0.80700
O208        O  0.08319950  0.03288926  0.94809184    -0.80500
O209        O  0.08026635  0.49040123  0.03133920    -0.79100
Zn210      Zn  0.01752348  0.00762051  0.05920942     1.55700
O211        O  0.06206848  0.06948401  0.95031568    -0.80500
Cd212      Cd  0.05148986  0.99621676  0.98704120     1.59700
Cd213      Cd  0.46616999  0.46531945  0.99557878     1.59600
O214        O  0.02823852  0.45414630  0.95874567    -0.80500
O215        O  0.01447138  0.00577188  0.00670498    -1.91000
Cd216      Cd  0.02216544  0.05175904  0.98783126     1.59900
O217        O  0.46982000  0.42803285  0.96234927    -0.80500
O218        O  0.03385255  0.08812076  0.03019073    -0.79100
C219        C  0.44185507  0.44873367  0.07523876     0.83400
C220        C  0.07846844  0.49299117  0.06599215     0.83100
O221        O  0.02773065  0.05450183  0.07821925    -0.78100
C222        C  0.08230311  0.05954736  0.93627973     0.83900
O223        O  0.47196857  0.47210987  0.08610658    -0.78200
C224        C  0.99766025  0.43044351  0.94938912     0.84000
C225        C  0.45236698  0.01809293  0.94493638     0.84300
O226        O  0.44322031  0.48525548  0.96205049    -0.80600
O227        O  0.14291026  0.35057581  0.59937401    -0.78100
C228        C  0.25486310  0.39693149  0.61123797     0.82900
O229        O  0.15699072  0.25687989  0.64706879    -0.79200
O230        O  0.24551215  0.35080251  0.72156913    -0.80700
O231        O  0.16543847  0.39253473  0.72364575    -0.80500
O232        O  0.11677659  0.36159618  0.64590009    -0.79100
Zn233      Zn  0.17826778  0.33905266  0.61919221     1.55700
O234        O  0.22315329  0.41266827  0.72447542    -0.80500
Cd235      Cd  0.14042139  0.34979758  0.68968213     1.59700
Cd236      Cd  0.16758429  0.29211923  0.68993322     1.59600
O237        O  0.10163207  0.30900730  0.72280798    -0.80500
O238        O  0.17813875  0.33943211  0.67192649    -1.91000
Cd239      Cd  0.22620638  0.37591541  0.68948303     1.59900
O240        O  0.12378927  0.27336698  0.72224840    -0.80500
O241        O  0.26115800  0.40113573  0.64560033    -0.79100
C242        C  0.15959071  0.26254434  0.61267649     0.83400
C243        C  0.12101334  0.35913162  0.61154070     0.83100
O244        O  0.22492646  0.37452035  0.59900189    -0.78100
C245        C  0.19609252  0.41374937  0.73569864     0.83900
O246        O  0.16745636  0.29222229  0.59952932    -0.78200
C247        C  0.10093301  0.28110116  0.73345492     0.84000
C248        C  0.23626290  0.32018069  0.73333482     0.84300
O249        O  0.20752950  0.29374067  0.72323306    -0.80600
C250        C  0.48059425  0.23137267  0.84571311    -0.05400
C251        C  0.48430510  0.22596853  0.80832298     0.00500
C252        C  0.45379196  0.20941646  0.78640370    -0.08000
C253        C  0.42076759  0.19882735  0.80279305    -0.05400
C254        C  0.41670846  0.20184235  0.84080107     0.00500
C255        C  0.44751936  0.21880321  0.86261773    -0.07900
C256        C  0.44776512  0.22323085  0.90373332     0.62400
H257        H  0.50393924  0.24331288  0.86262589     0.13100
H258        H  0.39735070  0.18640306  0.78614319     0.13100
C259        C  0.45597820  0.20142565  0.74626789     0.62700
F260        F  0.46452640  0.25840815  0.91227585    -0.22500
F261        F  0.46574763  0.20844755  0.91977252    -0.19800
F262        F  0.41475024  0.20759063  0.91858053    -0.19500
F263        F  0.47218199  0.18152870  0.74277688    -0.19500
F264        F  0.47510425  0.23225469  0.72720989    -0.19900
F265        F  0.42313880  0.18303792  0.73041507    -0.22500
C266        C  0.21047921  0.10714395  0.88965385    -0.05400
C267        C  0.19170036  0.10644705  0.85845511     0.00500
C268        C  0.20974818  0.11594961  0.82424896    -0.08000
C269        C  0.24663846  0.13186766  0.82391213    -0.05400
C270        C  0.26564495  0.13495511  0.85586976     0.00500
C271        C  0.24670204  0.12023896  0.88900665    -0.07900
C272        C  0.26240720  0.11831959  0.92523790     0.62400
H273        H  0.19719634  0.09927578  0.91588860     0.13100
H274        H  0.26071176  0.14128012  0.79823825     0.13100
C275        C  0.19138583  0.10812645  0.78751251     0.62700
F276        F  0.25249726  0.13347184  0.95271169    -0.22500
F277        F  0.29822304  0.13505130  0.92449196    -0.19800
F278        F  0.24996064  0.08372048  0.93414952    -0.19500
F279        F  0.19716399  0.13886276  0.77151351    -0.19500
F280        F  0.15572940  0.08547304  0.79060727    -0.19900
F281        F  0.20481186  0.09243325  0.76466020    -0.22500
C282        C  0.06918668  0.15751719  0.79684003    -0.05400
C283        C  0.07194046  0.18497233  0.81876443     0.00500
C284        C  0.08971734  0.19254718  0.85266847    -0.08000
C285        C  0.10524327  0.17278235  0.86311379    -0.05400
C286        C  0.10265501  0.14541878  0.84114280     0.00500
C287        C  0.08362933  0.13691748  0.80796231    -0.07900
C288        C  0.07803523  0.10580409  0.78502688     0.62400
H289        H  0.05573106  0.15251889  0.77081339     0.13100
H290        H  0.11870277  0.17779007  0.88914258     0.13100
C291        C  0.09187393  0.22110722  0.87772140     0.62700
F292        F  0.05746599  0.10122024  0.75459798    -0.22500
F293        F  0.06147082  0.07572878  0.80584717    -0.19800
F294        F  0.11001837  0.11063432  0.77302839    -0.19500
F295        F  0.05843433  0.21342472  0.88790358    -0.19500
F296        F  0.10825046  0.25280837  0.85972894    -0.19900
F297        F  0.11056716  0.22430714  0.90933098    -0.22500
C298        C  0.41472030  0.29502797  0.90470355    -0.05400
C299        C  0.43318016  0.31638784  0.87501874     0.00500
C300        C  0.42357752  0.30244628  0.83898015    -0.08000
C301        C  0.40056208  0.26643420  0.83444052    -0.05400
C302        C  0.38417786  0.24444969  0.86439635     0.00500
C303        C  0.39001803  0.25950677  0.90020768    -0.07900
C304        C  0.37211003  0.24006438  0.93507569     0.62400
H305        H  0.42101515  0.30571449  0.93223807     0.13100
H306        H  0.39510435  0.25537124  0.80703728     0.13100
C307        C  0.43552168  0.32427409  0.80448278     0.62700
F308        F  0.39700641  0.24550002  0.96127783    -0.22500
F309        F  0.35164680  0.20471044  0.92992587    -0.19800
F310        F  0.35124499  0.25286871  0.94862077    -0.19500
F311        F  0.45708230  0.31581458  0.78444989    -0.19500
F312        F  0.95143585  0.36084627  0.81237924    -0.19900
F313        F  0.40653761  0.31695784  0.78345394    -0.22500
C314        C  0.27121716  0.04935484  0.79363926    -0.05400
C315        C  0.25744330  0.02336555  0.82065799     0.00500
C316        C  0.26838495  0.03314337  0.85759497    -0.08000
C317        C  0.28905135  0.06877520  0.86659184    -0.05400
C318        C  0.30122576  0.09493833  0.83988745     0.00500
C319        C  0.29338665  0.08489685  0.80239564    -0.07900
C320        C  0.30720287  0.11006043  0.77028231     0.62400
H321        H  0.26342958  0.04202816  0.76535512     0.13100
H322        H  0.29594328  0.07624263  0.89490783     0.13100
C323        C  0.25916182  0.00711113  0.88850465     0.62700
F324        F  0.27928083  0.10770276  0.75062804    -0.22500
F325        F  0.32654739  0.10079089  0.74750944    -0.19800
F326        F  0.32838099  0.14445286  0.78044576    -0.19500
F327        F  0.29644831  0.50817390  0.89305470    -0.19500
F328        F  0.24606726  0.97330014  0.87595910    -0.19900
F329        F  0.23465106  0.00853649  0.91131816    -0.22500
C330        C  0.10480107  0.43411547  0.81076652    -0.05400
C331        C  0.13159606  0.43526055  0.83249140     0.00500
C332        C  0.12355293  0.41928040  0.86739445    -0.08000
C333        C  0.08861660  0.40308825  0.87970849    -0.05400
C334        C  0.06180726  0.40192428  0.85792007     0.00500
C335        C  0.06984053  0.41751015  0.82281311    -0.07900
C336        C  0.04163842  0.41618889  0.79797695     0.62400
H337        H  0.11149796  0.44555539  0.78364810     0.13100
H338        H  0.08193268  0.39176018  0.90687348     0.13100
C339        C  0.15161395  0.41909785  0.89126098     0.62700
F340        F  0.05559368  0.43544874  0.76631542    -0.22500
F341        F  0.02285802  0.42932377  0.81597018    -0.19800
F342        F  0.01927870  0.38201786  0.78784794    -0.19500
F343        F  0.17316581  0.93126985  0.90338373    -0.19500
F344        F  0.16787484  0.40367113  0.87254283    -0.19900
F345        F  0.13783196  0.40080300  0.92349479    -0.22500
C346        C  0.38578371  0.08772314  0.90164890    -0.05400
C347        C  0.39775312  0.07663461  0.87175834     0.00500
C348        C  0.40110783  0.09257114  0.83710469    -0.08000
C349        C  0.38850329  0.11625370  0.83295806    -0.05400
C350        C  0.37525695  0.12644752  0.86283678     0.00500
C351        C  0.37569530  0.11309806  0.89826200    -0.07900
C352        C  0.36613917  0.12415687  0.93384585     0.62400
H353        H  0.38403418  0.07612429  0.92829542     0.13100
H354        H  0.38833479  0.12645944  0.80609896     0.13100
C355        C  0.41899201  0.08570454  0.80503447     0.62700
F356        F  0.39370626  0.13521640  0.95820080    -0.22500
F357        F  0.33684884  0.09614826  0.94908503    -0.19800
F358        F  0.35952338  0.15106715  0.92941227    -0.19500
F359        F  0.39757053  0.05278069  0.79087978    -0.19500
F360        F  0.45019598  0.08834665  0.81646507    -0.19900
F361        F  0.42667141  0.10965538  0.77717792    -0.22500
C362        C  0.27677969  0.24295739  0.84425385    -0.05400
C363        C  0.28657336  0.25607862  0.80854773     0.00500
C364        C  0.30639150  0.24508206  0.78726990    -0.08000
C365        C  0.31710637  0.22274342  0.80318299    -0.05400
C366        C  0.30963002  0.21161678  0.83995347     0.00500
C367        C  0.28802313  0.22125854  0.86054702    -0.07900
C368        C  0.27638737  0.21070616  0.89973353     0.62400
H369        H  0.26165577  0.25150581  0.86050119     0.13100
H370        H  0.33247452  0.21442322  0.78713347     0.13100
C371        C  0.31714139  0.25784323  0.74827559     0.62700
F372        F  0.28562123  0.24014521  0.92082873    -0.22500
F373        F  0.29124325  0.19295598  0.91516061    -0.19800
F374        F  0.24031744  0.18970067  0.90075937    -0.19500
F375        F  0.33691750  0.29386643  0.74790996    -0.19500
F376        F  0.28755072  0.24727402  0.72709603    -0.19900
F377        F  0.33690647  0.24467606  0.73247390    -0.22500
C378        C  0.35442038  0.40679452  0.80996359    -0.05400
C379        C  0.32430678  0.38170294  0.82822147     0.00500
C380        C  0.31283189  0.39065133  0.86070114    -0.08000
C381        C  0.33205411  0.42507730  0.87382536    -0.05400
C382        C  0.36209331  0.45024586  0.85542619     0.00500
C383        C  0.37394051  0.44104021  0.82338631    -0.07900
C384        C  0.40730225  0.46720271  0.80393050     0.62400
H385        H  0.36222583  0.39932975  0.78479385     0.13100
H386        H  0.32424079  0.43254273  0.89898831     0.13100
C387        C  0.28057051  0.36384063  0.88126156     0.62700
F388        F  0.41444368  0.45269338  0.77363849    -0.22500
F389        F  0.43926694  0.97817156  0.82695161    -0.19800
F390        F  0.40398282  0.49512585  0.79220144    -0.19500
F391        F  0.28544629  0.33659262  0.89211448    -0.19500
F392        F  0.25148190  0.35101157  0.85881990    -0.19900
F393        F  0.27398215  0.37793483  0.91227575    -0.22500
C394        C  0.48250517  0.07121912  0.51750706    -0.05400
C395        C  0.48145298  0.04824561  0.49007044     0.00500
C396        C  0.46792803  0.04968692  0.45493971    -0.08000
C397        C  0.46062036  0.07661635  0.44774173    -0.05400
C398        C  0.46304241  0.10028319  0.47469317     0.00500
C399        C  0.47116563  0.09549699  0.51114337    -0.07900
C400        C  0.46735067  0.11433275  0.54427623     0.62400
H401        H  0.99157323  0.07091527  0.54306671     0.13100
H402        H  0.45417486  0.08024156  0.42013392     0.13100
C403        C  0.46141298  0.02393163  0.42422425     0.62700
F404        F  0.44951994  0.09044828  0.57177921    -0.22500
F405        F  0.44846259  0.13092910  0.53667730    -0.19800
F406        F  0.99895507  0.13925330  0.55658703    -0.19500
F407        F  0.43605532  0.49408811  0.42879884    -0.19500
F408        F  0.99279169  0.02718028  0.41155031    -0.19900
F409        F  0.44735285  0.03036442  0.39331828    -0.22500
C410        C  0.06020577  0.43586660  0.55965261    -0.05400
C411        C  0.07218462  0.42111061  0.53321078     0.00500
C412        C  0.07436765  0.43172891  0.49606974    -0.08000
C413        C  0.05996318  0.45271535  0.48622821    -0.05400
C414        C  0.04482351  0.46476409  0.51215923     0.00500
C415        C  0.04735691  0.45832830  0.54999698    -0.07900
C416        C  0.53568339  0.47356445  0.58184334     0.62400
H417        H  0.05929822  0.42818451  0.58796724     0.13100
H418        H  0.06126056  0.46026447  0.45795628     0.13100
C419        C  0.09170695  0.42199541  0.46573626     0.62700
F420        F  0.54241732  0.46542295  0.61637781    -0.22500
F421        F  0.50045896  0.46234496  0.58000761    -0.19800
F422        F  0.55427656  0.50929651  0.57844387    -0.19500
F423        F  0.06637668  0.39915736  0.44167082    -0.19500
F424        F  0.11049335  0.40686265  0.47879526    -0.19900
F425        F  0.11479472  0.45177561  0.44673668    -0.22500
C426        C  0.05668629  0.28606351  0.49285262    -0.05400
C427        C  0.03691675  0.29605568  0.51498738     0.00500
C428        C  0.49966610  0.26859608  0.52488318    -0.08000
C429        C  0.48443694  0.23620789  0.50709735    -0.05400
C430        C  0.50371304  0.22768702  0.48252289     0.00500
C431        C  0.04122971  0.25331956  0.47556297    -0.07900
C432        C  0.06312978  0.24348476  0.45122267     0.62400
H433        H  0.08451841  0.30405315  0.48974597     0.13100
H434        H  0.45716469  0.21715045  0.51205319     0.13100
C435        C  0.47840202  0.27667821  0.55214809     0.62700
F436        F  0.09736114  0.27054193  0.44807093    -0.22500
F437        F  0.04879986  0.23516465  0.41646216    -0.19800
F438        F  0.06394218  0.21506636  0.46578106    -0.19500
F439        F  0.47588174  0.30498143  0.54013643    -0.19500
F440        F  0.49453440  0.28431852  0.58605197    -0.19900
F441        F  0.44474750  0.24880239  0.55639015    -0.22500
C442        C  0.43804099  0.38047715  0.44731858    -0.05400
C443        C  0.42173646  0.35777881  0.47657425     0.00500
C444        C  0.43181319  0.37070916  0.51286477    -0.08000
C445        C  0.45374124  0.40681177  0.51843473    -0.05400
C446        C  0.46946810  0.42996118  0.48911914     0.00500
C447        C  0.46248710  0.41593665  0.45275777    -0.07900
C448        C  0.47986280  0.43782059  0.41924376     0.62400
H449        H  0.43053902  0.37029987  0.41977644     0.13100
H450        H  0.45851205  0.41669178  0.54607795     0.13100
C451        C  0.42094627  0.34744984  0.54635433     0.62700
F452        F  0.96468581  0.41936636  0.38762384    -0.22500
F453        F  0.01362422  0.44825599  0.42010407    -0.19800
F454        F  0.47495484  0.46606989  0.41897752    -0.19500
F455        F  0.40961315  0.31306691  0.53716256    -0.19500
F456        F  0.39460810  0.34971102  0.56489519    -0.19900
F457        F  0.44931312  0.35823881  0.56959811    -0.22500
C458        C  0.06526443  0.08504841  0.54798332    -0.05400
C459        C  0.05776816  0.08051874  0.51016552     0.00500
C460        C  0.07211386  0.11083691  0.48777584    -0.08000
C461        C  0.09390654  0.14370881  0.50389146    -0.05400
C462        C  0.10291230  0.14762593  0.54118458     0.00500
C463        C  0.08777807  0.11783179  0.56391701    -0.07900
C464        C  0.09640916  0.12028908  0.60448510     0.62400
H465        H  0.05405833  0.06227410  0.56509252     0.13100
H466        H  0.10571060  0.16668968  0.48658051     0.13100
C467        C  0.06674904  0.11081752  0.44696233     0.62700
F468        F  0.08001669  0.08789190  0.62119587    -0.22500
F469        F  0.08535379  0.14090252  0.62215031    -0.19800
F470        F  0.13218682  0.13468911  0.60904805    -0.19500
F471        F  0.54977493  0.12774732  0.44057427    -0.19500
F472        F  0.04766477  0.07786971  0.43284093    -0.19900
F473        F  0.09897130  0.12701799  0.42940404    -0.22500
C474        C  0.25377856  0.23222597  0.54286096    -0.05400
C475        C  0.22836725  0.23746044  0.52568197     0.00500
C476        C  0.23670253  0.25800744  0.49365521    -0.08000
C477        C  0.27080435  0.27268863  0.47943816    -0.05400
C478        C  0.29621836  0.26739588  0.49654804     0.00500
C479        C  0.28787065  0.24684237  0.52858288    -0.07900
C480        C  0.31492129  0.24057571  0.54744086     0.62400
H481        H  0.24672690  0.21695264  0.56780139     0.13100
H482        H  0.27785795  0.28803590  0.45454729     0.13100
C483        C  0.20956956  0.26416973  0.47474537     0.62700
F484        F  0.30112733  0.21920559  0.57776688    -0.22500
F485        F  0.34249515  0.27205996  0.55904864    -0.19800
F486        F  0.32731964  0.22486100  0.52335285    -0.19500
F487        F  0.19830083  0.28127034  0.49829964    -0.19500
F488        F  0.18120255  0.23252592  0.46461022    -0.19900
F489        F  0.22294469  0.28430064  0.44351912    -0.22500
C490        C  0.13525124  0.04759406  0.44282734    -0.05400
C491        C  0.15985552  0.05637781  0.47072336     0.00500
C492        C  0.14964784  0.05792072  0.50745384    -0.08000
C493        C  0.11418208  0.04716823  0.51507060    -0.05400
C494        C  0.08889447  0.03619623  0.48723995     0.00500
C495        C  0.10011091  0.03743603  0.45017582    -0.07900
C496        C  0.07671797  0.02739930  0.41685017     0.62400
H497        H  0.14318838  0.04683298  0.41475126     0.13100
H498        H  0.10625346  0.04732571  0.54315704     0.13100
C499        C  0.17493030  0.07101505  0.53947150     0.62700
F500        F  0.07823044  0.00091889  0.39794168    -0.22500
F501        F  0.08845390  0.05595883  0.39395433    -0.19800
F502        F  0.04241462  0.01611911  0.42559517    -0.19500
F503        F  0.20966030  0.08669137  0.52865532    -0.19500
F504        F  0.16773612  0.04338437  0.56239256    -0.19900
F505        F  0.17057422  0.09559326  0.55895939    -0.22500
C506        C  0.39548597  0.46971671  0.55878244    -0.05400
C507        C  0.36765665  0.44898066  0.53555508     0.00500
C508        C  0.37466129  0.43774734  0.50168206    -0.08000
C509        C  0.40987792  0.45048352  0.49086479    -0.05400
C510        C  0.43817487  0.47455854  0.51243286     0.00500
C511        C  0.43263619  0.98335607  0.55490248    -0.07900
C512        C  0.45953881  0.00419616  0.58410016     0.62400
H513        H  0.39190306  0.97949010  0.59120079     0.13100
H514        H  0.41545052  0.44219144  0.46498845     0.13100
C515        C  0.34498826  0.41226705  0.47731133     0.62700
F516        F  0.45345173  0.98321603  0.61442266    -0.22500
F517        F  0.45599750  0.03240503  0.59470893    -0.19800
F518        F  0.49352078  0.01634983  0.57292307    -0.19500
F519        F  0.32686247  0.42782965  0.46357881    -0.19500
F520        F  0.32224569  0.38319165  0.49745182    -0.19900
F521        F  0.35719723  0.40123215  0.44796218    -0.22500
C522        C  0.25835557  0.96842646  0.49125334    -0.05400
C523        C  0.27874121  0.48592399  0.51904537     0.00500
C524        C  0.28764751  0.51939703  0.53246521    -0.08000
C525        C  0.26866799  0.03238901  0.51727762    -0.05400
C526        C  0.24798689  0.01721927  0.48614369     0.00500
C527        C  0.24268310  0.98487997  0.47264525    -0.07900
C528        C  0.22040207  0.96789541  0.43901977     0.62400
H529        H  0.25433317  0.94335777  0.48194471     0.13100
H530        H  0.27263241  0.05741737  0.52666226     0.13100
C531        C  0.31359555  0.53621695  0.56357603     0.62700
F532        F  0.21802062  0.93609515  0.43100412    -0.22500
F533        F  0.23481868  0.98941178  0.40895879    -0.19800
F534        F  0.18691244  0.96224930  0.44500020    -0.19500
F535        F  0.34532119  0.53884650  0.55399193    -0.19500
F536        F  0.30084775  0.51614797  0.59486729    -0.19900
F537        F  0.31953057  0.56940451  0.57156056    -0.22500
C538        C  0.28199634  0.37652635  0.19617652    -0.05400
C539        C  0.25947234  0.37292227  0.16734347     0.00500
C540        C  0.27365750  0.38290045  0.13135617    -0.08000
C541        C  0.30892519  0.39296647  0.12524243    -0.05400
C542        C  0.33130317  0.39537433  0.15364507     0.00500
C543        C  0.31808000  0.38919521  0.19029025    -0.07900
C544        C  0.34064699  0.39602871  0.22406129     0.62400
H545        H  0.27128755  0.36956856  0.22366768     0.13100
H546        H  0.31872793  0.39780291  0.09729037     0.13100
C547        C  0.25349249  0.38271541  0.09762832     0.62700
F548        F  0.33228268  0.41375701  0.25000499    -0.22500
F549        F  0.37605909  0.41628298  0.21659667    -0.19800
F550        F  0.33412728  0.36458014  0.23886529    -0.19500
F551        F  0.21960526  0.37467909  0.10484984    -0.19500
F552        F  0.25277329  0.35871809  0.07258656    -0.19900
F553        F  0.27044121  0.41547355  0.08177147    -0.22500
C554        C  0.04738486  0.28324300  0.16854284    -0.05400
C555        C  0.04043793  0.28248056  0.20645070     0.00500
C556        C  0.06841321  0.29258988  0.23148829    -0.08000
C557        C  0.10228399  0.30447856  0.21744352    -0.05400
C558        C  0.10973798  0.30904842  0.17973911     0.00500
C559        C  0.08168971  0.29727233  0.15460992    -0.07900
C560        C  0.08607492  0.29955012  0.11331393     0.62400
H561        H  0.02590674  0.27531488  0.14941547     0.13100
H562        H  0.12380741  0.31173200  0.23614536     0.13100
C563        C  0.06333527  0.29279767  0.27275529     0.62700
F564        F  0.06900089  0.26624595  0.09860854    -0.22500
F565        F  0.12063413  0.31567742  0.10228059    -0.19800
F566        F  0.07127363  0.31829941  0.09927432    -0.19500
F567        F  0.04294844  0.25901635  0.28514967    -0.19500
F568        F  0.04731763  0.31210050  0.28147225    -0.19900
F569        F  0.09490261  0.30738553  0.29135380    -0.22500
C570        C  0.42892612  0.30788521  0.16546089    -0.05400
C571        C  0.45594693  0.32467967  0.19111036     0.00500
C572        C  0.46694011  0.35919760  0.20239108    -0.08000
C573        C  0.44961917  0.37582848  0.18793865    -0.05400
C574        C  0.42215551  0.35879012  0.16281637     0.00500
C575        C  0.41194527  0.32468297  0.15063035    -0.07900
C576        C  0.38367603  0.30655129  0.12186924     0.62400
H577        H  0.42086744  0.28122246  0.15772760     0.13100
H578        H  0.45756677  0.40244310  0.19576585     0.13100
C579        C  0.49655891  0.37802271  0.22962172     0.62700
F580        F  0.35270371  0.30398817  0.13418562    -0.22500
F581        F  0.37748629  0.27321156  0.11424618    -0.19800
F582        F  0.39379666  0.32552619  0.08966790    -0.19500
F583        F  0.52697851  0.38047679  0.21550387    -0.19500
F584        F  0.48822405  0.35982088  0.26229150    -0.19900
F585        F  0.50291394  0.41146066  0.23699495    -0.22500
C586        C  0.23666369  0.44082365  0.15900206    -0.05400
C587        C  0.22721143  0.41610513  0.18716471     0.00500
C588        C  0.23822187  0.42845024  0.22365256    -0.08000
C589        C  0.25939231  0.46448853  0.22998404    -0.05400
C590        C  0.26959215  0.48888429  0.20168034     0.00500
C591        C  0.25650442  0.47698245  0.16583056    -0.07900
C592        C  0.26305282  0.50156686  0.13408311     0.62400
H593        H  0.22820220  0.43188889  0.13128703     0.13100
H594        H  0.26939495  0.47359201  0.25736864     0.13100
C595        C  0.22930535  0.40558991  0.25731644     0.62700
F596        F  0.23285733  0.48956996  0.11352383    -0.22500
F597        F  0.28932028  0.50294791  0.11188105    -0.19800
F598        F  0.27589091  0.03472292  0.14301182    -0.19500
F599        F  0.25988339  0.41023223  0.27309506    -0.19500
F600        F  0.20830670  0.37075768  0.24984276    -0.19900
F601        F  0.21199081  0.41527145  0.28249308    -0.22500
C602        C  0.12240645  0.24246155  0.18534605    -0.05400
C603        C  0.14143766  0.26645491  0.15757077     0.00500
C604        C  0.13805086  0.25381424  0.12086584    -0.08000
C605        C  0.11299099  0.21891968  0.11306910    -0.05400
C606        C  0.09231041  0.19558537  0.14052904     0.00500
C607        C  0.09942516  0.20689442  0.17767255    -0.07900
C608        C  0.08456931  0.18222039  0.20993887     0.62400
H609        H  0.12576317  0.25148294  0.21347308     0.13100
H610        H  0.10865621  0.21019057  0.08475482     0.13100
C611        C  0.15952612  0.27526755  0.08844429     0.62700
F612        F  0.11053789  0.19051302  0.23576102    -0.22500
F613        F  0.07232350  0.14793449  0.19958713    -0.19800
F614        F  0.05769644  0.18537723  0.22599427    -0.19500
F615        F  0.18194578  0.30958201  0.09713417    -0.19500
F616        F  0.13742602  0.27422603  0.06098287    -0.19900
F617        F  0.17926914  0.26113072  0.07498039    -0.22500
C618        C  0.41682136  0.06792286  0.18905165    -0.05400
C619        C  0.39434888  0.07832785  0.17378684     0.00500
C620        C  0.40622627  0.10313595  0.14519765    -0.08000
C621        C  0.44121139  0.11772828  0.13336567    -0.05400
C622        C  0.46393789  0.10781334  0.14919279     0.00500
C623        C  0.45153099  0.08196907  0.17686704    -0.07900
C624        C  0.47489185  0.06943628  0.19353461     0.62400
H625        H  0.40700580  0.04910492  0.21116562     0.13100
H626        H  0.45097761  0.13651526  0.11122955     0.13100
C627        C  0.38175154  0.11348374  0.12710765     0.62700
F628        F  0.45783214  0.04500724  0.22084483    -0.22500
F629        F  0.00346445  0.10386046  0.21318786    -0.19800
F630        F  0.48538328  0.05416524  0.16683750    -0.19500
F631        F  0.37032191  0.12899834  0.15254563    -0.19500
F632        F  0.35309625  0.08407670  0.11297274    -0.19900
F633        F  0.39803769  0.13679098  0.09868136    -0.22500
C634        C  0.23121571  0.28799450  0.15499777    -0.05400
C635        C  0.21490959  0.29680675  0.18290664     0.00500
C636        C  0.21355824  0.28383869  0.21896923    -0.08000
C637        C  0.22870007  0.26285526  0.22551040    -0.05400
C638        C  0.24340193  0.25257916  0.19734083     0.00500
C639        C  0.24562202  0.26621971  0.16150414    -0.07900
C640        C  0.26253819  0.25848472  0.12915629     0.62400
H641        H  0.23256272  0.29813891  0.12767568     0.13100
H642        H  0.22670880  0.25222563  0.25274026     0.13100
C643        C  0.19587783  0.28998787  0.25177646     0.62700
F644        F  0.28462368  0.28919689  0.11098524    -0.22500
F645        F  0.23669244  0.23626035  0.10517182    -0.19800
F646        F  0.28229684  0.24351913  0.13951700    -0.19500
F647        F  0.17264052  0.25829672  0.26758897    -0.19500
F648        F  0.17720162  0.30627794  0.24305644    -0.19900
F649        F  0.22105139  0.31014393  0.27737925    -0.22500
C650        C  0.13329230  0.42667434  0.17046776    -0.05400
C651        C  0.13744121  0.43557469  0.13311126     0.00500
C652        C  0.14912665  0.41840663  0.10872968    -0.08000
C653        C  0.15642566  0.39306721  0.12288637    -0.05400
C654        C  0.15418742  0.38547796  0.16059449     0.00500
C655        C  0.14213607  0.40252512  0.18488340    -0.07900
C656        C  0.13876783  0.39736051  0.22600688     0.62400
H657        H  0.12458696  0.44014711  0.18903298     0.13100
H658        H  0.16577919  0.38010933  0.10459981     0.13100
C659        C  0.15549056  0.42784249  0.06829631     0.62700
F660        F  0.15816328  0.42929686  0.24327703    -0.22500
F661        F  0.15045666  0.37557844  0.23836495    -0.19800
F662        F  0.10393071  0.38334610  0.23596871    -0.19500
F663        F  0.17696517  0.46346776  0.06424828    -0.19500
F664        F  0.12393719  0.41762895  0.05105103    -0.19900
F665        F  0.17154992  0.41157201  0.05073189    -0.22500
C666        C  0.20361444  0.08565642  0.12904306    -0.05400
C667        C  0.17368993  0.06015000  0.14722857     0.00500
C668        C  0.16170653  0.06866542  0.17963072    -0.08000
C669        C  0.18084893  0.10277023  0.19342828    -0.05400
C670        C  0.21076609  0.12832999  0.17528219     0.00500
C671        C  0.22249399  0.11995056  0.14260845    -0.07900
C672        C  0.25451033  0.14724668  0.12218346     0.62400
H673        H  0.21153325  0.07860692  0.10368302     0.13100
H674        H  0.17281956  0.10980443  0.21872848     0.13100
C675        C  0.12859344  0.04188082  0.19909850     0.62700
F676        F  0.26211420  0.13338019  0.09165604    -0.22500
F677        F  0.28341466  0.16123316  0.14497248    -0.19800
F678        F  0.24849066  0.17354784  0.11057958    -0.19500
F679        F  0.13219598  0.01378167  0.20958504    -0.19500
F680        F  0.10018539  0.03035866  0.17584765    -0.19900
F681        F  0.12164761  0.05559808  0.23017957    -0.22500
C682        C  0.13110606  0.96423989  0.12180613     0.03500
C683        C  0.10595059  0.96208596  0.09629232    -0.12600
C684        C  0.10484166  0.99241573  0.08672428     0.01000
C685        C  0.12892745  0.52550074  0.10549656    -0.11100
C686        C  0.15460661  0.52842401  0.12966912     0.03500
C687        C  0.15415874  0.99673204  0.13792572    -0.10600
H688        H  0.08685549  0.93712086  0.08493859     0.09100
H689        H  0.12661356  0.54834716  0.09960768     0.06600
H690        H  0.17318909  0.99877157  0.15801119     0.06500
C691        C  0.25202114  0.72581179  0.20308600     0.03500
C692        C  0.27222277  0.72667133  0.23377807    -0.12600
C693        C  0.27410203  0.69670206  0.24337696     0.01000
C694        C  0.25695443  0.66688276  0.22123631    -0.11100
C695        C  0.23673035  0.66552947  0.19142871     0.03500
C696        C  0.23385559  0.69475957  0.18261343    -0.10600
H697        H  0.28517828  0.74992627  0.25064258     0.09100
H698        H  0.25846268  0.64369955  0.22764070     0.06600
H699        H  0.21627115  0.69288164  0.16089579     0.06500
C700        C  0.05824490  0.66001388  0.13449216     0.03500
C701        C  0.02494745  0.65036856  0.14940116    -0.12600
C702        C  0.49722553  0.61972724  0.13743762     0.01000
C703        C  0.49981085  0.59933037  0.10988098    -0.11100
C704        C  0.03059089  0.60772358  0.09578433     0.03500
C705        C  0.06084556  0.63827459  0.10732212    -0.10600
H706        H  0.02196574  0.66688061  0.16946373     0.09100
H707        H  0.47640334  0.57572894  0.10119988     0.06600
H708        H  0.08607895  0.64484172  0.09558989     0.06500
C709        C  0.29902017  0.52483301  0.20910418     0.03500
C710        C  0.33021616  0.53636972  0.18897875    -0.12600
C711        C  0.35946178  0.56868978  0.19648149     0.01000
C712        C  0.35836121  0.58923656  0.22474809    -0.11100
C713        C  0.32829817  0.57825673  0.24640178     0.03500
C714        C  0.29810832  0.54593331  0.23821039    -0.10600
H715        H  0.33211878  0.51976906  0.16816602     0.09100
H716        H  0.38181709  0.61399661  0.23014039     0.06600
H717        H  0.27459366  0.53691266  0.25466045     0.06500
C718        C  0.00475505  0.78374700  0.21984481     0.03500
C719        C  0.49830362  0.80954478  0.20676624    -0.12600
C720        C  0.46743359  0.80937363  0.21599463     0.01000
C721        C  0.44516163  0.78647565  0.24230355    -0.11100
C722        C  0.45212476  0.76205223  0.25884410     0.03500
C723        C  0.48262077  0.76098917  0.24840543    -0.10600
H724        H  0.01324000  0.82493946  0.18204057     0.09100
H725        H  0.42112027  0.78677780  0.24840496     0.06600
H726        H  0.48728249  0.74100281  0.25944939     0.06500
C727        C  0.36361123  0.89916936  0.13538907     0.03500
C728        C  0.38449755  0.92228669  0.10707303    -0.12600
C729        C  0.41675849  0.92470913  0.09727621     0.01000
C730        C  0.42786433  0.90427575  0.11539104    -0.11100
C731        C  0.40722159  0.88085964  0.14229766     0.03500
C732        C  0.37498792  0.87781223  0.15199149    -0.10600
H733        H  0.37620478  0.93871946  0.09350596     0.09100
H734        H  0.45297415  0.90653561  0.10844715     0.06600
H735        H  0.35902996  0.85913193  0.17279853     0.06500
C736        C  0.16083893  0.80345268  0.16907437     0.02700
C737        C  0.14507902  0.82472461  0.17169571     0.02700
C738        C  0.16639481  0.86168261  0.17301552     0.02700
C739        C  0.20338111  0.87709580  0.17601045     0.02700
C740        C  0.21910097  0.85590763  0.17212668     0.02700
C741        C  0.19774133  0.81895598  0.17286441     0.02700
O742        O  0.38646498  0.66743158  0.41277105    -0.78100
C743        C  0.36062638  0.74739213  0.40582592     0.82900
O744        O  0.26523280  0.61388905  0.36572548    -0.79200
O745        O  0.32017934  0.72095943  0.28857131    -0.80700
O746        O  0.42252933  0.70766831  0.29133847    -0.80500
O747        O  0.41136957  0.65704041  0.36468153    -0.79100
Zn748      Zn  0.34776458  0.67380721  0.39388369     1.55700
O749        O  0.40356207  0.74578155  0.29770299    -0.80500
Cd750      Cd  0.38504736  0.66616153  0.32256057     1.59700
Cd751      Cd  0.30051470  0.63927847  0.32285668     1.59600
O752        O  0.36147577  0.62394891  0.28789078    -0.80500
O753        O  0.34770100  0.67574045  0.34152812    -1.91000
Cd754      Cd  0.35743873  0.72345391  0.32646375     1.59900
O755        O  0.30359271  0.60226969  0.28888154    -0.80500
O756        O  0.36328240  0.75528894  0.37188976    -0.79100
C757        C  0.27252356  0.61447323  0.39961731     0.83400
C758        C  0.40911613  0.66076826  0.39908794     0.83100
O759        O  0.35431209  0.71751085  0.41650691    -0.78100
C760        C  0.42519847  0.73719099  0.28459974     0.83900
O761        O  0.30283691  0.63506720  0.41228687    -0.78200
C762        C  0.33075231  0.60208556  0.27663007     0.84000
C763        C  0.29315091  0.69418766  0.27576209     0.84300
O764        O  0.28290728  0.66360117  0.28809393    -0.80600
C765        C  0.33445185  0.94441403  0.55195795     0.03500
C766        C  0.31321661  0.92204648  0.58045393    -0.12600
C767        C  0.28066567  0.91975208  0.58876193     0.01000
C768        C  0.27022412  0.94019781  0.56934484    -0.11100
C769        C  0.29159087  0.96316157  0.54235867     0.03500
C770        C  0.32352836  0.96520637  0.53351582    -0.10600
H771        H  0.32152514  0.90621290  0.59523698     0.09100
H772        H  0.24510675  0.93830528  0.57532399     0.06600
H773        H  0.33997426  0.98309099  0.51233260     0.06500
C774        C  0.19363647  0.56353477  0.46185000     0.03500
C775        C  0.21502107  0.58660381  0.43407514    -0.12600
C776        C  0.24712433  0.58869701  0.42508134     0.01000
C777        C  0.25736017  0.56743019  0.44305091    -0.11100
C778        C  0.23591966  0.54372682  0.46945589     0.03500
C779        C  0.20414547  0.54182570  0.47917096    -0.10600
H780        H  0.20713239  0.60328795  0.42032864     0.09100
H781        H  0.28231188  0.56923284  0.43635504     0.06600
H782        H  0.18750763  0.52329218  0.49977695     0.06500
C783        C  0.12945666  0.68176174  0.55146048     0.03500
C784        C  0.12661845  0.70318564  0.57900023    -0.12600
C785        C  0.15664880  0.73486909  0.58921772     0.01000
C786        C  0.18845258  0.74510409  0.57160698    -0.11100
C787        C  0.19109662  0.72510405  0.54373503     0.03500
C788        C  0.16210154  0.69323159  0.53416418    -0.10600
H789        H  0.10152383  0.69606266  0.59134013     0.09100
H790        H  0.21153416  0.76950212  0.57917523     0.06600
H791        H  0.16493187  0.67743700  0.51300930     0.06500
C792        C  0.39021845  0.82237313  0.47446342     0.03500
C793        C  0.35807510  0.81124315  0.49274468    -0.12600
C794        C  0.32843813  0.77977682  0.48292596     0.01000
C795        C  0.32993452  0.76030876  0.45361736    -0.11100
C796        C  0.36095657  0.77125771  0.43415936     0.03500
C797        C  0.39137385  0.80204909  0.44474632    -0.10600
H798        H  0.35596718  0.82707921  0.51431076     0.09100
H799        H  0.30657521  0.73621397  0.44595143     0.06600
H800        H  0.41573659  0.80992128  0.43021902     0.06500
C801        C  0.07540128  0.89004806  0.55156346     0.03500
C802        C  0.09632238  0.89055602  0.58127358    -0.12600
C803        C  0.09752524  0.86006270  0.58999424     0.01000
C804        C  0.07731682  0.82954521  0.56997579    -0.11100
C805        C  0.05613583  0.82873671  0.54146360     0.03500
C806        C  0.05510326  0.85878826  0.53218309    -0.10600
H807        H  0.11233064  0.91451655  0.59629332     0.09100
H808        H  0.07845826  0.80612243  0.57626706     0.06600
H809        H  0.03866467  0.85790190  0.50967893     0.06500
C810        C  0.46036773  0.63367856  0.46157446     0.03500
C811        C  0.43575559  0.63146577  0.43527946    -0.12600
C812        C  0.43558524  0.66167547  0.42392918     0.01000
C813        C  0.45901235  0.69381014  0.43948930    -0.11100
C814        C  0.48339358  0.69642562  0.46534579     0.03500
C815        C  0.48488459  0.66669990  0.47552474    -0.10600
H816        H  0.41639006  0.60640353  0.42427743     0.09100
H817        H  0.45768940  0.71691714  0.43214994     0.06600
H818        H  0.00613003  0.67122361  0.49514750     0.06500
C819        C  0.49290230  0.96787134  0.50302172     0.02700
C820        C  0.47696863  0.98928474  0.50455034     0.02700
C821        C  0.99604893  0.52740743  0.49273460     0.02700
C822        C  0.03338452  0.54335651  0.49387058     0.02700
C823        C  0.04903790  0.52190046  0.49389864     0.02700
C824        C  0.02971374  0.98517789  0.50423444     0.02700
C825        C  0.28533163  0.78608738  0.79970702     0.03500
C826        C  0.26120715  0.78446411  0.77267826    -0.12600
C827        C  0.26035473  0.81517487  0.76296026     0.01000
C828        C  0.28304288  0.84642023  0.78108439    -0.11100
C829        C  0.30563421  0.84800108  0.80829328     0.03500
C830        C  0.30719227  0.81811983  0.81740114    -0.10600
H831        H  0.24368786  0.75991134  0.75941657     0.09100
H832        H  0.28265328  0.87024436  0.77499272     0.06600
H833        H  0.32540180  0.81976090  0.83830286     0.06500
C834        C  0.40472668  0.54592085  0.88256886     0.03500
C835        C  0.38328513  0.51430873  0.86405919    -0.12600
C836        C  0.38585724  0.98559264  0.86919171     0.01000
C837        C  0.40833132  0.98764958  0.89688668    -0.11100
C838        C  0.42666294  0.51593022  0.92152210     0.03500
C839        C  0.42670278  0.54663552  0.91118276    -0.10600
H840        H  0.36563970  0.51312450  0.84274181     0.09100
H841        H  0.40957949  0.96432903  0.90328390     0.06600
H842        H  0.44303794  0.57078292  0.92579024     0.06500
C843        C  0.22758601  0.98813889  0.81052152     0.03500
C844        C  0.22953650  0.96779771  0.78104850    -0.12600
C845        C  0.19968555  0.93556841  0.77151206     0.01000
C846        C  0.16898577  0.92394430  0.79224906    -0.11100
C847        C  0.16663026  0.94364690  0.82064699     0.03500
C848        C  0.19550157  0.97595782  0.82941006    -0.10600
H849        H  0.25364685  0.97717122  0.76557149     0.11800
H850        H  0.14592476  0.89905654  0.78615786     0.06600
H851        H  0.19290097  0.99175025  0.85070183     0.06500
C852        C  0.46400361  0.84859783  0.88363009     0.03500
C853        C  0.46352276  0.87206683  0.91002425    -0.12600
C854        C  0.49489844  0.90218096  0.92007373     0.01000
C855        C  0.02648650  0.90779262  0.90515516    -0.11100
C856        C  0.02740957  0.88588827  0.87835231     0.03500
C857        C  0.99659662  0.85564840  0.86848452    -0.10600
H858        H  0.43907073  0.86661367  0.92295319     0.09100
H859        H  0.05099658  0.93095706  0.91209462     0.06600
H860        H  0.99800235  0.83782461  0.84896765     0.06500
C861        C  0.15894616  0.60919907  0.87535661     0.03500
C862        C  0.13639261  0.58541935  0.90234225    -0.12600
C863        C  0.10720241  0.58729118  0.91550223     0.01000
C864        C  0.09907954  0.61106353  0.89952747    -0.11100
C865        C  0.11948457  0.63297599  0.87153404     0.03500
C866        C  0.15030530  0.63346431  0.86065774    -0.10600
H867        H  0.14200611  0.56617537  0.91383026     0.09100
H868        H  0.07592393  0.61211131  0.90803786     0.06600
H869        H  0.16739301  0.65281160  0.84103767     0.06500
C870        C  0.02026227  0.73226875  0.80131974     0.03500
C871        C  0.03186155  0.71222990  0.82032363    -0.12600
C872        C  0.06462560  0.71588310  0.81290547     0.01000
C873        C  0.08549055  0.73822242  0.78558050    -0.11100
C874        C  0.07519304  0.75851039  0.76547968     0.03500
C875        C  0.04243311  0.75613955  0.77393133    -0.10600
H876        H  0.01531162  0.69370011  0.84100130     0.09100
H877        H  0.11051522  0.73969754  0.78029379     0.06600
H878        H  0.03433941  0.77227840  0.75947716     0.06500
C879        C  0.36281765  0.70407189  0.86047854     0.02700
C880        C  0.32567180  0.68790338  0.85654284     0.02700
C881        C  0.30533150  0.65076447  0.85601341     0.02700
C882        C  0.32256860  0.63071461  0.85337298     0.02700
C883        C  0.35943456  0.64698586  0.85864828     0.02700
C884        C  0.38004284  0.68397549  0.85856899     0.02700
O885        O  0.05606933  0.49944089  0.08100680    -0.78100
C886        C  0.03083473  0.58227054  0.07008650     0.82900
O887        O  0.43353360  0.94413568  0.03585048    -0.79200
O888        O  0.47684025  0.54309482  0.96087076    -0.80700
O889        O  0.08488776  0.53758687  0.95527845    -0.80500
O890        O  0.08091239  0.99046025  0.02801087    -0.79100
Zn891      Zn  0.01743347  0.50766058  0.06389186     1.55700
O892        O  0.06140481  0.57211072  0.95796251    -0.80500
Cd893      Cd  0.05150346  0.49775240  0.99071807     1.59700
Cd894      Cd  0.46663248  0.96693062  0.99075174     1.59600
O895        O  0.02746940  0.95090151  0.95836059    -0.80500
O896        O  0.01377819  0.50578495  0.01135555    -1.91000
Cd897      Cd  0.01985898  0.55123227  0.99322997     1.59900
O898        O  0.46965692  0.92880355  0.95851674    -0.80500
O899        O  0.02933309  0.58640557  0.03572632    -0.79100
C900        C  0.44123171  0.94897425  0.06984175     0.83400
C901        C  0.07823222  0.99238154  0.06262531     0.83100
O902        O  0.02711096  0.55408083  0.08346279    -0.78100
C903        C  0.08367371  0.56446610  0.94482027     0.83900
O904        O  0.47166074  0.97154771  0.08094158    -0.78200
C905        C  0.99691962  0.92780753  0.94835778     0.84000
C906        C  0.44993319  0.51507163  0.95026273     0.84300
O907        O  0.44537363  0.98819320  0.95677735    -0.80600
O908        O  0.14304770  0.84935497  0.60415464    -0.78100
C909        C  0.25501823  0.89518551  0.61536232     0.82900
O910        O  0.15482370  0.75430837  0.64999043    -0.79200
O911        O  0.24539785  0.84793357  0.72362928    -0.80700
O912        O  0.16706970  0.89170489  0.72816695    -0.80500
O913        O  0.11837990  0.86196811  0.65085044    -0.79100
Zn914      Zn  0.17824451  0.83756690  0.62327890     1.55700
O915        O  0.22448195  0.91068230  0.72958969    -0.80500
Cd916      Cd  0.14172285  0.84950529  0.69378585     1.59700
Cd917      Cd  0.16675113  0.78981005  0.69342162     1.59600
O918        O  0.10228139  0.80950269  0.72623164    -0.80500
O919        O  0.17828794  0.83768697  0.67586063    -1.91000
Cd920      Cd  0.22636811  0.87394594  0.69334100     1.59900
O921        O  0.12288525  0.77248002  0.72585080    -0.80500
O922        O  0.26117909  0.89928538  0.64971758    -0.79100
C923        C  0.15719851  0.76043816  0.61565061     0.83400
C924        C  0.12176082  0.85857919  0.61656761     0.83100
O925        O  0.22510811  0.87281710  0.60294944    -0.78100
C926        C  0.19765865  0.91221660  0.74076498     0.83900
O927        O  0.16591041  0.79056683  0.60323109    -0.78200
C928        C  0.10075230  0.78131133  0.73699750     0.84000
C929        C  0.23637396  0.81744212  0.73551067     0.84300
O930        O  0.20716505  0.79098225  0.72633386    -0.80600
C931        C  0.48149272  0.73322226  0.85145131    -0.05400
C932        C  0.48634288  0.72855490  0.81415621     0.00500
C933        C  0.45631306  0.71113040  0.79158609    -0.08000
C934        C  0.42269746  0.69853725  0.80744226    -0.05400
C935        C  0.41768687  0.70080764  0.84537361     0.00500
C936        C  0.44801103  0.71876571  0.86776162    -0.07900
C937        C  0.44753046  0.72227126  0.90892993     0.62400
H938        H  0.50446823  0.74604861  0.86884118     0.13100
H939        H  0.39963581  0.68549888  0.79033520     0.13100
C940        C  0.45957899  0.70453391  0.75127744     0.62700
F941        F  0.46268716  0.75717289  0.91830188    -0.22500
F942        F  0.46658905  0.70854288  0.92475636    -0.19800
F943        F  0.41436901  0.70498175  0.92322315    -0.19500
F944        F  0.47756667  0.68639841  0.74730906    -0.19500
F945        F  0.47745366  0.73599028  0.73304401    -0.19900
F946        F  0.42712359  0.68511260  0.73486657    -0.22500
C947        C  0.21239212  0.60887568  0.89573365    -0.05400
C948        C  0.19362152  0.61190883  0.86649501     0.00500
C949        C  0.21034796  0.62138772  0.83155314    -0.08000
C950        C  0.24669445  0.63365102  0.82909572    -0.05400
C951        C  0.26605687  0.63303788  0.85929712     0.00500
C952        C  0.24759715  0.61779169  0.89259413    -0.07900
C953        C  0.26276803  0.61102291  0.92667818     0.62400
H954        H  0.20003322  0.60096458  0.92242355     0.13100
H955        H  0.26008869  0.64364539  0.80319276     0.13100
C956        C  0.19098321  0.61760625  0.79607683     0.62700
F957        F  0.25913465  0.62874172  0.95627501    -0.22500
F958        F  0.29737337  0.62118994  0.92309094    -0.19800
F959        F  0.24473675  0.57565204  0.93420213    -0.19500
F960        F  0.19845432  0.65015694  0.78376195    -0.19500
F961        F  0.15515031  0.59657075  0.80009215    -0.19900
F962        F  0.20179288  0.60225554  0.76971848    -0.22500
C963        C  0.06573563  0.66116566  0.81614677    -0.05400
C964        C  0.07699553  0.69435943  0.83085799     0.00500
C965        C  0.10363136  0.70830888  0.85775741    -0.08000
C966        C  0.11831338  0.68806557  0.86927198    -0.05400
C967        C  0.10722170  0.65493334  0.85428813     0.00500
C968        C  0.08039070  0.64096512  0.82756493    -0.07900
C969        C  0.06741657  0.60491641  0.81121463     0.62400
H970        H  0.04579462  0.65154658  0.79505846     0.13100
H971        H  0.13819715  0.69765844  0.89041000     0.13100
C972        C  0.11613175  0.74423370  0.87420957     0.62700
F973        F  0.04287781  0.59742635  0.78392678    -0.22500
F974        F  0.05195052  0.57982615  0.83815451    -0.19800
F975        F  0.09528703  0.60298096  0.79604343    -0.19500
F976        F  0.08778310  0.74624279  0.88797027    -0.19500
F977        F  0.13268113  0.76953081  0.84765634    -0.19900
F978        F  0.13958453  0.75131520  0.90255090    -0.22500
C979        C  0.41393366  0.79362401  0.90607677    -0.05400
C980        C  0.43209560  0.81442694  0.87594893     0.00500
C981        C  0.42284307  0.79986755  0.84018518    -0.08000
C982        C  0.40023020  0.76379261  0.83637465    -0.05400
C983        C  0.38407760  0.74241484  0.86679929     0.00500
C984        C  0.38972665  0.75794788  0.90230245    -0.07900
C985        C  0.37242860  0.73882788  0.93756239     0.62400
H986        H  0.42028095  0.80484135  0.93339474     0.13100
H987        H  0.39504977  0.75215742  0.80924192     0.13100
C988        C  0.43548169  0.82124380  0.80539631     0.62700
F989        F  0.39784253  0.74421800  0.96308553    -0.22500
F990        F  0.35139231  0.70344059  0.93283112    -0.19800
F991        F  0.35224405  0.75210585  0.95183200    -0.19500
F992        F  0.45984706  0.81490571  0.78806394    -0.19500
F993        F  0.95261966  0.85622991  0.81134945    -0.19900
F994        F  0.40741280  0.81164344  0.78204659    -0.22500
C995        C  0.27101387  0.55147072  0.79074174    -0.05400
C996        C  0.25848048  0.52392509  0.81589787     0.00500
C997        C  0.27151036  0.53121661  0.85236462    -0.08000
C998        C  0.29255818  0.56618477  0.86352159    -0.05400
C999        C  0.30275958  0.59402124  0.83908804     0.00500
C1000       C  0.29374870  0.58633643  0.80137531    -0.07900
C1001       C  0.30736217  0.61331259  0.77089708     0.62400
H1002       H  0.26197230  0.54586413  0.76260239     0.13100
H1003       H  0.30103738  0.57169064  0.89175000     0.13100
C1004       C  0.26467785  0.50331116  0.88045031     0.62700
F1005       F  0.27940088  0.61306313  0.75341390    -0.22500
F1006       F  0.32538768  0.60458314  0.74565494    -0.19800
F1007       F  0.32982067  0.64686218  0.78282380    -0.19500
F1008       F  0.28894750  0.01558263  0.90867434    -0.19500
F1009       F  0.24617723  0.46982772  0.86644034    -0.19900
F1010       F  0.24621498  0.50633944  0.90972277    -0.22500
C1011       C  0.10759750  0.93617661  0.81926533    -0.05400
C1012       C  0.13203793  0.93053102  0.83802977     0.00500
C1013       C  0.12121639  0.90737425  0.86812957    -0.08000
C1014       C  0.08587660  0.89109353  0.87918203    -0.05400
C1015       C  0.06146144  0.89693644  0.86048660     0.00500
C1016       C  0.07227921  0.91968461  0.83000704    -0.07900
C1017       C  0.04646300  0.92617916  0.80880428     0.62400
H1018       H  0.11638245  0.95305036  0.79547860     0.13100
H1019       H  0.07716398  0.87444279  0.90313476     0.13100
C1020       C  0.14708972  0.90041119  0.88853750     0.62700
F1021       F  0.06249569  0.94941447  0.78027564    -0.22500
F1022       F  0.03105473  0.93979684  0.83175328    -0.19800
F1023       F  0.02082319  0.89504866  0.79410482    -0.19500
F1024       F  0.17621756  0.45293596  0.90039517    -0.19500
F1025       F  0.16204340  0.88694469  0.86476152    -0.19900
F1026       F  0.13114753  0.87677069  0.91676508    -0.22500
C1027       C  0.38838418  0.58816903  0.90557110    -0.05400
C1028       C  0.39991042  0.57647918  0.87581885     0.00500
C1029       C  0.40214612  0.59127365  0.84073083    -0.08000
C1030       C  0.38872400  0.61416407  0.83611271    -0.05400
C1031       C  0.37606151  0.62505212  0.86591102     0.00500
C1032       C  0.37746425  0.61283639  0.90167959    -0.07900
C1033       C  0.36728141  0.62359990  0.93709237     0.62400
H1034       H  0.38700486  0.57711429  0.93245539     0.13100
H1035       H  0.38829081  0.62374669  0.80893453     0.13100
C1036       C  0.41926475  0.58472086  0.80778130     0.62700
F1037       F  0.39479304  0.63543432  0.96162878    -0.22500
F1038       F  0.33840657  0.59506231  0.95225854    -0.19800
F1039       F  0.35959868  0.64980128  0.93247592    -0.19500
F1040       F  0.39400361  0.56563598  0.78185231    -0.19500
F1041       F  0.43685605  0.56711069  0.81668126    -0.19900
F1042       F  0.44349674  0.61638584  0.79263541    -0.22500
C1043       C  0.27933697  0.74281023  0.84678882    -0.05400
C1044       C  0.28898224  0.75539720  0.81085084     0.00500
C1045       C  0.30809968  0.74354394  0.78960321    -0.08000
C1046       C  0.31796363  0.72060398  0.80560638    -0.05400
C1047       C  0.31031441  0.70966150  0.84241970     0.00500
C1048       C  0.28954946  0.72026716  0.86307143    -0.07900
C1049       C  0.27769080  0.70973350  0.90224243     0.62400
H1050       H  0.26485858  0.75209333  0.86306397     0.13100
H1051       H  0.33282461  0.71165784  0.78959739     0.13100
C1052       C  0.31895261  0.75594000  0.75050271     0.62700
F1053       F  0.28928211  0.73932221  0.92373297    -0.22500
F1054       F  0.29005650  0.68944199  0.91709026    -0.19800
F1055       F  0.24144857  0.69119347  0.90343436    -0.19500
F1056       F  0.33864202  0.79196309  0.74969105    -0.19500
F1057       F  0.28938933  0.74506273  0.72919423    -0.19900
F1058       F  0.33888246  0.74274355  0.73515705    -0.22500
C1059       C  0.35869444  0.90600894  0.80944733    -0.05400
C1060       C  0.32721384  0.88196901  0.82650587     0.00500
C1061       C  0.31381038  0.89272585  0.85612235    -0.08000
C1062       C  0.33310074  0.92741039  0.86846775    -0.05400
C1063       C  0.36451737  0.95143520  0.85135024     0.00500
C1064       C  0.37772739  0.94082967  0.82148254    -0.07900
C1065       C  0.41170423  0.96639836  0.80253544     0.62400
H1066       H  0.36778393  0.89739179  0.78608077     0.13100
H1067       H  0.32396065  0.93609350  0.89173945     0.13100
C1068       C  0.27895974  0.86773119  0.87397400     0.62700
F1069       F  0.41909740  0.95132189  0.77294110    -0.22500
F1070       F  0.43540963  0.47907402  0.82765489    -0.19800
F1071       F  0.40921663  0.99453120  0.78984812    -0.19500
F1072       F  0.27953323  0.83839541  0.88608013    -0.19500
F1073       F  0.25220019  0.85783540  0.84882949    -0.19900
F1074       F  0.27174175  0.88277236  0.90373757    -0.22500
C1075       C  0.48003460  0.57084100  0.51403497    -0.05400
C1076       C  0.47974143  0.54913398  0.48558899     0.00500
C1077       C  0.46726704  0.55212521  0.45044845    -0.08000
C1078       C  0.46046462  0.57957240  0.44435978    -0.05400
C1079       C  0.46224898  0.60208869  0.47242553     0.00500
C1080       C  0.46912260  0.59553680  0.50868670    -0.07900
C1081       C  0.46443383  0.61282170  0.54266991     0.62400
H1082       H  0.98872531  0.56909808  0.54145259     0.13100
H1083       H  0.45475917  0.58440497  0.41689750     0.13100
C1084       C  0.46101379  0.52726326  0.41883593     0.62700
F1085       F  0.44519294  0.58754678  0.56852810    -0.22500
F1086       F  0.44646591  0.63047495  0.53574036    -0.19800
F1087       F  0.99832607  0.63654259  0.55807699    -0.19500
F1088       F  0.43777400  0.99084328  0.43568204    -0.19500
F1089       F  0.99238444  0.52845059  0.41068608    -0.19900
F1090       F  0.44867309  0.53558753  0.38780593    -0.22500
C1091       C  0.05929766  0.93494963  0.56637965    -0.05400
C1092       C  0.07278444  0.92106009  0.54069980     0.00500
C1093       C  0.07735774  0.93281682  0.50387318    -0.08000
C1094       C  0.06308442  0.95361422  0.49290462    -0.05400
C1095       C  0.04626237  0.96472080  0.51787801     0.00500
C1096       C  0.04718144  0.95775256  0.55589009    -0.07900
C1097       C  0.53749331  0.97320477  0.58507563     0.62400
H1098       H  0.05695734  0.92659434  0.59463031     0.13100
H1099       H  0.06596050  0.96188380  0.46467831     0.13100
C1100       C  0.09734474  0.92448367  0.47532045     0.62700
F1101       F  0.54271402  0.96385040  0.61966587    -0.22500
F1102       F  0.50274568  0.96375060  0.58236588    -0.19800
F1103       F  0.55767331  0.00893362  0.58237271    -0.19500
F1104       F  0.07418383  0.90189185  0.44947929    -0.19500
F1105       F  0.11574102  0.90969148  0.49032190    -0.19900
F1106       F  0.12131495  0.95499751  0.45802257    -0.22500
C1107       C  0.05610228  0.78802912  0.49541269    -0.05400
C1108       C  0.03692107  0.79636714  0.52033137     0.00500
C1109       C  0.50227610  0.77071628  0.52911788    -0.08000
C1110       C  0.48592347  0.73829784  0.51124185    -0.05400
C1111       C  0.50376288  0.72971202  0.48485123     0.00500
C1112       C  0.04063098  0.75572757  0.47721147    -0.07900
C1113       C  0.06187038  0.74737839  0.45025343     0.62400
H1114       H  0.08350292  0.80690009  0.49087916     0.13100
H1115       H  0.45891228  0.71932976  0.51751782     0.13100
C1116       C  0.48260499  0.77904772  0.55817495     0.62700
F1117       F  0.09545378  0.77531409  0.44570732    -0.22500
F1118       F  0.04563690  0.73915421  0.41640251    -0.19800
F1119       F  0.06454099  0.71933098  0.46288164    -0.19500
F1120       F  0.48008722  0.80771280  0.54748346    -0.19500
F1121       F  0.50025500  0.78632254  0.59118642    -0.19900
F1122       F  0.44899511  0.75146246  0.56367468    -0.22500
C1123       C  0.43823149  0.87964216  0.45446146    -0.05400
C1124       C  0.42111166  0.85711198  0.48363599     0.00500
C1125       C  0.43137922  0.86988577  0.51995645    -0.08000
C1126       C  0.45419505  0.90594619  0.52551145    -0.05400
C1127       C  0.47072740  0.92896882  0.49613278     0.00500
C1128       C  0.46375252  0.91470082  0.45991709    -0.07900
C1129       C  0.48222877  0.93609414  0.42651994     0.62400
H1130       H  0.43059262  0.86971596  0.42686418     0.13100
H1131       H  0.45904372  0.91575732  0.55319189     0.13100
C1132       C  0.42027423  0.84662046  0.55351751     0.62700
F1133       F  0.96928554  0.91981767  0.39321466    -0.22500
F1134       F  0.01688409  0.94835301  0.42786518    -0.19800
F1135       F  0.47747213  0.96438921  0.42499124    -0.19500
F1136       F  0.40509532  0.81163159  0.54460473    -0.19500
F1137       F  0.39689897  0.85204733  0.57413463    -0.19900
F1138       F  0.44945603  0.85492415  0.57469167    -0.22500
C1139       C  0.06093352  0.58512417  0.54515988    -0.05400
C1140       C  0.05525078  0.58058002  0.50706389     0.00500
C1141       C  0.07150876  0.61072566  0.48448399    -0.08000
C1142       C  0.09239270  0.64364399  0.50094355    -0.05400
C1143       C  0.09945003  0.64773370  0.53878633     0.00500
C1144       C  0.08317461  0.61782889  0.56143387    -0.07900
C1145       C  0.09052244  0.61984495  0.60229058     0.62400
H1146       H  0.04874046  0.56230500  0.56225495     0.13100
H1147       H  0.10535397  0.66648615  0.48352071     0.13100
C1148       C  0.06981009  0.61033920  0.44314091     0.62700
F1149       F  0.07472636  0.58714181  0.61832091    -0.22500
F1150       F  0.07767350  0.63910269  0.61959903    -0.19800
F1151       F  0.12623144  0.63533700  0.60820265    -0.19500
F1152       F  0.54741155  0.62804338  0.43622991    -0.19500
F1153       F  0.04979682  0.57746220  0.42911971    -0.19900
F1154       F  0.10333931  0.62401031  0.42891495    -0.22500
C1155       C  0.24727055  0.72627424  0.53988434    -0.05400
C1156       C  0.22527786  0.73791420  0.52600410     0.00500
C1157       C  0.23774606  0.76465273  0.49936579    -0.08000
C1158       C  0.27249298  0.77900159  0.48722224    -0.05400
C1159       C  0.29450959  0.76737769  0.50111916     0.00500
C1160       C  0.28203995  0.74068475  0.52779540    -0.07900
C1161       C  0.30557199  0.72804938  0.54376048     0.62400
H1162       H  0.23709593  0.70629127  0.56084231     0.13100
H1163       H  0.28264821  0.79896009  0.46623708     0.13100
C1164       C  0.21426081  0.77745529  0.48355317     0.62700
F1165       F  0.28839409  0.70262010  0.57014751    -0.22500
F1166       F  0.33437971  0.75577431  0.55994007    -0.19800
F1167       F  0.31678328  0.71404488  0.51639794    -0.19500
F1168       F  0.20411064  0.79248036  0.51083781    -0.19500
F1169       F  0.18476480  0.74967519  0.46837079    -0.19900
F1170       F  0.23112873  0.80216778  0.45643736    -0.22500
C1171       C  0.13447691  0.54805832  0.44194023    -0.05400
C1172       C  0.15874912  0.55942655  0.47044680     0.00500
C1173       C  0.14781199  0.56245996  0.50631673    -0.08000
C1174       C  0.11199527  0.55056782  0.51282902    -0.05400
C1175       C  0.08713458  0.53718223  0.48453963     0.00500
C1176       C  0.09903438  0.53717740  0.44805459    -0.07900
C1177       C  0.07624899  0.52556578  0.41416561     0.62400
H1178       H  0.14308757  0.54626364  0.41445751     0.13100
H1179       H  0.10353575  0.55196329  0.54034634     0.13100
C1180       C  0.17269476  0.57815724  0.53842233     0.62700
F1181       F  0.07809696  0.49826239  0.39758111    -0.22500
F1182       F  0.08854999  0.55298709  0.38963992    -0.19800
F1183       F  0.04176572  0.51488642  0.42162164    -0.19500
F1184       F  0.20750447  0.59575572  0.52773389    -0.19500
F1185       F  0.16747796  0.55192248  0.56251428    -0.19900
F1186       F  0.16592137  0.60183326  0.55653641    -0.22500
C1187       C  0.39756416  0.97110711  0.56527181    -0.05400
C1188       C  0.36960480  0.94926738  0.54266214     0.00500
C1189       C  0.37653381  0.93692111  0.50950163    -0.08000
C1190       C  0.41170483  0.94950425  0.49866345    -0.05400
C1191       C  0.44013380  0.97440331  0.51950006     0.00500
C1192       C  0.43054282  0.48218432  0.54839174    -0.07900
C1193       C  0.45728721  0.50176826  0.57813258     0.62400
H1194       H  0.38974548  0.47715975  0.58523183     0.13100
H1195       H  0.41713059  0.94028779  0.47332538     0.13100
C1196       C  0.34681462  0.91022779  0.48599957     0.62700
F1197       F  0.45095379  0.47952158  0.60734254    -0.22500
F1198       F  0.45375228  0.52954780  0.59041490    -0.19800
F1199       F  0.49132502  0.51433827  0.56692808    -0.19500
F1200       F  0.32668785  0.92396486  0.47318172    -0.19500
F1201       F  0.32593885  0.88089747  0.50673524    -0.19900
F1202       F  0.35909717  0.90005929  0.45600242    -0.22500
C1203       C  0.25545132  0.47121591  0.48967827    -0.05400
C1204       C  0.27897101  0.98358437  0.52242505     0.00500
C1205       C  0.28430313  0.01593334  0.53590178    -0.08000
C1206       C  0.27195670  0.53700389  0.51634660    -0.05400
C1207       C  0.24826386  0.52210236  0.48731655     0.00500
C1208       C  0.24035894  0.48916468  0.47303482    -0.07900
C1209       C  0.21652040  0.47349841  0.44013999     0.62400
H1210       H  0.24914745  0.44549789  0.48004855     0.13100
H1211       H  0.27835819  0.56276970  0.52590895     0.13100
C1212       C  0.30633717  0.03278095  0.56975115     0.62700
F1213       F  0.21173956  0.44093831  0.43103317    -0.22500
F1214       F  0.23091948  0.49508511  0.41010457    -0.19800
F1215       F  0.18409306  0.46992028  0.44782315    -0.19500
F1216       F  0.29123720  0.01142371  0.59980069    -0.19500
F1217       F  0.30917563  0.06483681  0.57740555    -0.19900
F1218       F  0.33973850  0.03786285  0.56442459    -0.22500
C1219       C  0.28134070  0.87866479  0.19075547    -0.05400
C1220       C  0.25726367  0.87224901  0.16263264     0.00500
C1221       C  0.26996419  0.88037924  0.12586879    -0.08000
C1222       C  0.30507190  0.89016304  0.11841361    -0.05400
C1223       C  0.32886190  0.89510743  0.14631406     0.00500
C1224       C  0.31732598  0.89204880  0.18341758    -0.07900
C1225       C  0.34174093  0.90371816  0.21616977     0.62400
H1226       H  0.27203605  0.87376373  0.21885754     0.13100
H1227       H  0.31378829  0.89331427  0.09009896     0.13100
C1228       C  0.24839882  0.87909049  0.09296201     0.62700
F1229       F  0.33467601  0.92504456  0.23834831    -0.22500
F1230       F  0.37672340  0.92262782  0.20634225    -0.19800
F1231       F  0.33610405  0.87484862  0.23614961    -0.19500
F1232       F  0.21514881  0.87216393  0.10187442    -0.19500
F1233       F  0.24592666  0.85376662  0.06871691    -0.19900
F1234       F  0.26501481  0.91108251  0.07547092    -0.22500
C1235       C  0.04522834  0.78559801  0.17108100    -0.05400
C1236       C  0.03846207  0.78566585  0.20889712     0.00500
C1237       C  0.06623694  0.79471516  0.23399904    -0.08000
C1238       C  0.09983663  0.80477183  0.21998933    -0.05400
C1239       C  0.10728597  0.80853097  0.18222486     0.00500
C1240       C  0.07925863  0.79761307  0.15716900    -0.07900
C1241       C  0.08335987  0.79856428  0.11587545     0.62400
H1242       H  0.02387647  0.77826567  0.15192240     0.13100
H1243       H  0.12122961  0.81137262  0.23871873     0.13100
C1244       C  0.06135911  0.79581539  0.27522680     0.62700
F1245       F  0.06451965  0.76494531  0.10219651    -0.22500
F1246       F  0.11770236  0.81255414  0.10465273    -0.19800
F1247       F  0.07023248  0.81849210  0.10102230    -0.19500
F1248       F  0.04031702  0.76240302  0.28831819    -0.19500
F1249       F  0.04618090  0.81601358  0.28334509    -0.19900
F1250       F  0.09295700  0.81002455  0.29372567    -0.22500
C1251       C  0.43112417  0.81249182  0.16723924    -0.05400
C1252       C  0.45520703  0.82973531  0.19549646     0.00500
C1253       C  0.46286551  0.86336411  0.20693165    -0.08000
C1254       C  0.44567729  0.87886411  0.18950549    -0.05400
C1255       C  0.42133358  0.86146187  0.16149181     0.00500
C1256       C  0.41413681  0.82806388  0.14963422    -0.07900
C1257       C  0.38909082  0.80941343  0.11827271     0.62400
H1258       H  0.42546076  0.78648620  0.15946377     0.13100
H1259       H  0.45123974  0.90481783  0.19736092     0.13100
C1260       C  0.48885139  0.88240049  0.23744560     0.62700
F1261       F  0.35673998  0.80601195  0.12604690    -0.22500
F1262       F  0.38442776  0.77637012  0.11235435    -0.19800
F1263       F  0.40214704  0.82844785  0.08637721    -0.19500
F1264       F  0.52120885  0.88652031  0.22795395    -0.19500
F1265       F  0.47736763  0.86337540  0.26953507    -0.19900
F1266       F  0.49291610  0.91512749  0.24396604    -0.22500
C1267       C  0.23491955  0.93977569  0.15697168    -0.05400
C1268       C  0.22563304  0.91514431  0.18516501     0.00500
C1269       C  0.23779441  0.92737526  0.22140047    -0.08000
C1270       C  0.26009305  0.96325557  0.22737600    -0.05400
C1271       C  0.27032635  0.98755757  0.19895552     0.00500
C1272       C  0.25594203  0.97585696  0.16350998    -0.07900
C1273       C  0.26166957  0.00034524  0.13191126     0.62400
H1274       H  0.22544359  0.93085265  0.12948149     0.13100
H1275       H  0.27090850  0.97225876  0.25452115     0.13100
C1276       C  0.22894117  0.90451217  0.25509759     0.62700
F1277       F  0.22985505  0.99083118  0.11549968    -0.22500
F1278       F  0.28367919  0.99792202  0.10628420    -0.19800
F1279       F  0.27245258  0.53490157  0.14590158    -0.19500
F1280       F  0.25950133  0.90882138  0.27061167    -0.19500
F1281       F  0.20760424  0.86970164  0.24773080    -0.19900
F1282       F  0.21204730  0.91448142  0.28048791    -0.22500
C1283       C  0.11951750  0.74217280  0.18869590    -0.05400
C1284       C  0.13867613  0.76528414  0.16029099     0.00500
C1285       C  0.13508402  0.75160038  0.12403990    -0.08000
C1286       C  0.10998305  0.71656137  0.11729374    -0.05400
C1287       C  0.08933266  0.69408489  0.14532920     0.00500
C1288       C  0.09643938  0.70643667  0.18211411    -0.07900
C1289       C  0.08151098  0.68279043  0.21516926     0.62400
H1290       H  0.12281231  0.75198841  0.21648329     0.13100
H1291       H  0.10551295  0.70706767  0.08924989     0.13100
C1292       C  0.15606838  0.77205272  0.09090715     0.62700
F1293       F  0.10764213  0.69136131  0.24084909    -0.22500
F1294       F  0.06850601  0.64810877  0.20606536    -0.19800
F1295       F  0.05519422  0.68707866  0.23091587    -0.19500
F1296       F  0.17842717  0.80664408  0.09833671    -0.19500
F1297       F  0.13351982  0.77000826  0.06343697    -0.19900
F1298       F  0.17575729  0.75763840  0.07802803    -0.22500
C1299       C  0.41531315  0.56922940  0.19438079    -0.05400
C1300       C  0.39333072  0.57995375  0.17850884     0.00500
C1301       C  0.40563071  0.60447356  0.14966306    -0.08000
C1302       C  0.44039838  0.61798625  0.13765779    -0.05400
C1303       C  0.46261499  0.60773194  0.15404916     0.00500
C1304       C  0.44998563  0.58264327  0.18243834    -0.07900
C1305       C  0.47312155  0.57032347  0.20008838     0.62400
H1306       H  0.40518054  0.55074178  0.21678516     0.13100
H1307       H  0.45051331  0.63650799  0.11528999     0.13100
C1308       C  0.38206693  0.61623144  0.13203570     0.62700
F1309       F  0.45580431  0.54645744  0.22780138    -0.22500
F1310       F  0.00149591  0.59715282  0.21506612    -0.19800
F1311       F  0.48372409  0.55450255  0.17413573    -0.19500
F1312       F  0.37390274  0.63461075  0.15727997    -0.19500
F1313       F  0.35144982  0.58745523  0.12020580    -0.19900
F1314       F  0.39799323  0.63755879  0.10208876    -0.22500
C1315       C  0.23111518  0.78940926  0.15373740    -0.05400
C1316       C  0.21354360  0.79666619  0.18164206     0.00500
C1317       C  0.21238117  0.78342123  0.21753094    -0.08000
C1318       C  0.22848067  0.76328852  0.22373576    -0.05400
C1319       C  0.24459602  0.75468225  0.19557473     0.00500
C1320       C  0.24705563  0.76899967  0.16010043    -0.07900
C1321       C  0.26602725  0.76356335  0.12811622     0.62400
H1322       H  0.23249409  0.79992031  0.12660332     0.13100
H1323       H  0.22646502  0.75222853  0.25074028     0.13100
C1324       C  0.19434827  0.78862201  0.25065622     0.62700
F1325       F  0.28733338  0.79518703  0.11108439    -0.22500
F1326       F  0.24164939  0.74110992  0.10306638    -0.19800
F1327       F  0.28702833  0.75007937  0.13881001    -0.19500
F1328       F  0.17120389  0.75647899  0.26564143    -0.19500
F1329       F  0.17560963  0.80503800  0.24278165    -0.19900
F1330       F  0.21930033  0.80820793  0.27668769    -0.22500
C1331       C  0.12943816  0.92441934  0.17057960    -0.05400
C1332       C  0.13367886  0.93320031  0.13315077     0.00500
C1333       C  0.14562490  0.91607200  0.10901526    -0.08000
C1334       C  0.15325796  0.89111128  0.12347492    -0.05400
C1335       C  0.15151736  0.88413214  0.16125707     0.00500
C1336       C  0.13895538  0.90086307  0.18533001    -0.07900
C1337       C  0.13568995  0.89589872  0.22649178     0.62400
H1338       H  0.12040166  0.93774017  0.18894990     0.13100
H1339       H  0.16247207  0.87795095  0.10532640     0.13100
C1340       C  0.15209654  0.92523165  0.06852815     0.62700
F1341       F  0.15358289  0.92806935  0.24364304    -0.22500
F1342       F  0.14914740  0.87567697  0.23915902    -0.19800
F1343       F  0.10066882  0.88024498  0.23628923    -0.19500
F1344       F  0.17339457  0.96085568  0.06426848    -0.19500
F1345       F  0.12057133  0.91462348  0.05105103    -0.19900
F1346       F  0.16845450  0.90906734  0.05135118    -0.22500
C1347       C  0.20359311  0.58884376  0.12552908    -0.05400
C1348       C  0.17709828  0.56258524  0.14695656     0.00500
C1349       C  0.16923342  0.57059175  0.18209489    -0.08000
C1350       C  0.18862567  0.60502274  0.19486705    -0.05400
C1351       C  0.21513659  0.63136529  0.17352730     0.00500
C1352       C  0.22305166  0.62338110  0.13837395    -0.07900
C1353       C  0.25195298  0.65105396  0.11482662     0.62400
H1354       H  0.20845081  0.58208065  0.09836110     0.13100
H1355       H  0.18344535  0.61177087  0.22190482     0.13100
C1356       C  0.13999301  0.54307021  0.20555453     0.62700
F1357       F  0.25661999  0.63721987  0.08250894    -0.22500
F1358       F  0.28329791  0.66628198  0.13377235    -0.19800
F1359       F  0.24356294  0.67637681  0.10587274    -0.19500
F1360       F  0.14654378  0.51609159  0.21247831    -0.19500
F1361       F  0.10836426  0.53007229  0.18742497    -0.19900
F1362       F  0.13700421  0.55646896  0.23895206    -0.22500
C1363       C  0.63187319  0.46392059  0.12395277     0.03500
C1364       C  0.60648084  0.46157643  0.09866208    -0.12600
C1365       C  0.60400137  0.49146452  0.09061315     0.01000
C1366       C  0.62811421  0.02402626  0.10209764    -0.11100
C1367       C  0.65256952  0.02631959  0.12758311     0.03500
C1368       C  0.65434482  0.49622352  0.14073802    -0.10600
H1369       H  0.58831379  0.43675791  0.08628339     0.09100
H1370       H  0.62655590  0.04718519  0.09561712     0.06600
H1371       H  0.67412223  0.49846569  0.15992361     0.06500
C1372       C  0.75054750  0.22278761  0.20436604     0.03500
C1373       C  0.77130564  0.22343967  0.23441368    -0.12600
C1374       C  0.77230665  0.19302984  0.24418401     0.01000
C1375       C  0.75331525  0.16273854  0.22302205    -0.11100
C1376       C  0.73297399  0.16179281  0.19349943     0.03500
C1377       C  0.73105600  0.19152660  0.18453538    -0.10600
H1378       H  0.78563184  0.24703273  0.25053062     0.09100
H1379       H  0.75411341  0.13918836  0.22945783     0.06600
H1380       H  0.71372547  0.19010571  0.16274019     0.06500
C1381       C  0.56152081  0.16147401  0.12771747     0.03500
C1382       C  0.52830734  0.15159170  0.14313193    -0.12600
C1383       C  0.99821727  0.12093556  0.13305084     0.01000
C1384       C  0.00120044  0.10021700  0.10610458    -0.11100
C1385       C  0.53366908  0.10927501  0.08878467     0.03500
C1386       C  0.56396504  0.13999055  0.10007602    -0.10600
H1387       H  0.52557069  0.16782639  0.16376745     0.09100
H1388       H  0.97801795  0.07617438  0.09792985     0.06600
H1389       H  0.58914358  0.14670357  0.08809211     0.06500
C1390       C  0.79912123  0.02413443  0.20465608     0.03500
C1391       C  0.83001643  0.03560571  0.18388866    -0.12600
C1392       C  0.85974975  0.06756932  0.19172488     0.01000
C1393       C  0.85925456  0.08778061  0.22076476    -0.11100
C1394       C  0.82942970  0.07686859  0.24277660     0.03500
C1395       C  0.79891560  0.04499148  0.23435210    -0.10600
H1396       H  0.83129274  0.01919020  0.16242752     0.09100
H1397       H  0.88295723  0.11224874  0.22642815     0.06600
H1398       H  0.77563429  0.03602314  0.25118272     0.06500
C1399       C  0.50618271  0.27883764  0.21592945     0.03500
C1400       C  0.99856671  0.30410244  0.20154389    -0.12600
C1401       C  0.96920414  0.30579282  0.21282330     0.01000
C1402       C  0.94802962  0.28427598  0.24066887    -0.11100
C1403       C  0.95389706  0.25868842  0.25600402     0.03500
C1404       C  0.98324740  0.25617985  0.24394828    -0.10600
H1405       H  0.51499644  0.32114767  0.17951873     0.09100
H1406       H  0.92521467  0.28623518  0.24849431     0.06600
H1407       H  0.98758506  0.23587359  0.25466231     0.06500
C1408       C  0.86648966  0.40076502  0.14281734     0.03500
C1409       C  0.88707396  0.42370979  0.11431723    -0.12600
C1410       C  0.91785548  0.42425501  0.10240420     0.01000
C1411       C  0.92800620  0.40230351  0.11861992    -0.11100
C1412       C  0.90818280  0.37973898  0.14654708     0.03500
C1413       C  0.87733957  0.37862548  0.15846363    -0.10600
H1414       H  0.87945465  0.44114501  0.10185158     0.09100
H1415       H  0.95207341  0.40315859  0.10980723     0.06600
H1416       H  0.86203994  0.36085730  0.18016109     0.06500
C1417       C  0.66407356  0.30372376  0.16688267     0.02700
C1418       C  0.64778194  0.32452250  0.16907889     0.02700
C1419       C  0.66847619  0.36142220  0.17252900     0.02700
C1420       C  0.70514754  0.37710468  0.17859038     0.02700
C1421       C  0.72146130  0.35634753  0.17547139     0.02700
C1422       C  0.70059854  0.31936166  0.17346765     0.02700
O1423       O  0.88839480  0.16580968  0.41047659    -0.78100
C1424       C  0.86230159  0.24566297  0.40316631     0.82900
O1425       O  0.76697239  0.11013750  0.36454165    -0.79200
O1426       O  0.82056429  0.21763354  0.28696070    -0.80700
O1427       O  0.92427209  0.20474800  0.28934841    -0.80500
O1428       O  0.91253221  0.15421074  0.36246920    -0.79100
Zn1429     Zn  0.84907007  0.17154362  0.39213592     1.55700
O1430       O  0.90489155  0.24258377  0.29448327    -0.80500
Cd1431     Cd  0.88634792  0.16342407  0.32039843     1.59700
Cd1432     Cd  0.80178695  0.13640548  0.32146959     1.59600
O1433       O  0.86299154  0.12167205  0.28507870    -0.80500
O1434       O  0.84905454  0.17316538  0.33963142    -1.91000
Cd1435     Cd  0.85892814  0.22081405  0.32393907     1.59900
O1436       O  0.80515927  0.10038008  0.28626419    -0.80500
O1437       O  0.86542838  0.25332816  0.36912310    -0.79100
C1438       C  0.77402455  0.11111824  0.39856215     0.83400
C1439       C  0.91080204  0.15876870  0.39677927     0.83100
O1440       O  0.85553327  0.21569620  0.41420391    -0.78100
C1441       C  0.92680931  0.23407682  0.28193478     0.83900
O1442       O  0.80417924  0.13230461  0.41131237    -0.78200
C1443       C  0.83221643  0.10022736  0.27362678     0.84000
C1444       C  0.79278571  0.19080604  0.27540391     0.84300
O1445       O  0.78281397  0.16038454  0.28803173    -0.80600
C1446       C  0.83175705  0.44307892  0.54478152     0.03500
C1447       C  0.81139509  0.42141485  0.57415170    -0.12600
C1448       C  0.77937704  0.41975022  0.58374993     0.01000
C1449       C  0.76878447  0.44037388  0.56492407    -0.11100
C1450       C  0.78933930  0.46264320  0.53703879     0.03500
C1451       C  0.82043338  0.46362193  0.52657106    -0.10600
H1452       H  0.82002949  0.40574965  0.58874389     0.09100
H1453       H  0.74429994  0.43932781  0.57224742     0.06600
H1454       H  0.83631014  0.48106436  0.50481649     0.06500
C1455       C  0.69441298  0.06064382  0.46042691     0.03500
C1456       C  0.71611838  0.08347698  0.43260346    -0.12600
C1457       C  0.74831197  0.08538461  0.42408719     0.01000
C1458       C  0.75816394  0.06401706  0.44260262    -0.11100
C1459       C  0.73616457  0.04026843  0.46878669     0.03500
C1460       C  0.70442988  0.03864617  0.47788259    -0.10600
H1461       H  0.70859339  0.10037401  0.41871693     0.09100
H1462       H  0.78327232  0.06589428  0.43665311     0.06600
H1463       H  0.68762067  0.02039380  0.49861081     0.06500
C1464       C  0.63273650  0.17979704  0.55492094     0.03500
C1465       C  0.62988571  0.20236563  0.58080631    -0.12600
C1466       C  0.65970383  0.23478158  0.58923382     0.01000
C1467       C  0.69143895  0.24449932  0.57158376    -0.11100
C1468       C  0.69422885  0.22268025  0.54591243     0.03500
C1469       C  0.66527377  0.19021720  0.53801821    -0.10600
H1470       H  0.60483738  0.19542585  0.59321750     0.09100
H1471       H  0.71425912  0.26965546  0.57748849     0.06600
H1472       H  0.66789183  0.17329301  0.51812577     0.06500
C1473       C  0.89096352  0.32250233  0.46958472     0.03500
C1474       C  0.85897845  0.31095249  0.48829814    -0.12600
C1475       C  0.82977078  0.27878422  0.47955932     0.01000
C1476       C  0.83168191  0.25861019  0.45119204    -0.11100
C1477       C  0.86249180  0.26991265  0.43112662     0.03500
C1478       C  0.89240784  0.30181054  0.44037662    -0.10600
H1479       H  0.85657616  0.32714197  0.50923372     0.09100
H1480       H  0.80873348  0.23378063  0.44458697     0.06600
H1481       H  0.91661789  0.31020236  0.42535022     0.06500
C1482       C  0.57211884  0.38691735  0.54680418     0.03500
C1483       C  0.59397423  0.38837871  0.57619778    -0.12600
C1484       C  0.59605149  0.35834484  0.58539920     0.01000
C1485       C  0.57616613  0.32751234  0.56577074    -0.11100
C1486       C  0.55404041  0.32566261  0.53777829     0.03500
C1487       C  0.55160552  0.35499150  0.52857727    -0.10600
H1488       H  0.60993659  0.41268367  0.59066960     0.09100
H1489       H  0.57807897  0.30452461  0.57215849     0.06600
H1490       H  0.53406988  0.35305061  0.50678844     0.06500
C1491       C  0.96261342  0.13383725  0.46089535     0.03500
C1492       C  0.93792336  0.13070956  0.43421491    -0.12600
C1493       C  0.93778234  0.16049310  0.42136108     0.01000
C1494       C  0.96148207  0.19315861  0.43554274    -0.11100
C1495       C  0.98565221  0.19666433  0.46211300     0.03500
C1496       C  0.98694250  0.16726420  0.47403469    -0.10600
H1497       H  0.91844666  0.10527936  0.42411541     0.09100
H1498       H  0.96015102  0.21598024  0.42698364     0.06600
H1499       H  0.50542032  0.16807196  0.49457708     0.06500
C1500       C  0.99091658  0.46916614  0.49690884     0.02700
C1501       C  0.97491906  0.49048973  0.49821913     0.02700
C1502       C  0.49792232  0.02598930  0.49771045     0.02700
C1503       C  0.53529319  0.04193900  0.49824618     0.02700
C1504       C  0.55101691  0.02053102  0.49769599     0.02700
C1505       C  0.52819149  0.48476346  0.50055127     0.02700
C1506       C  0.78539865  0.28870745  0.79854561     0.03500
C1507       C  0.76199740  0.28767724  0.77106521    -0.12600
C1508       C  0.76092570  0.31842647  0.76219794     0.01000
C1509       C  0.78251158  0.34913219  0.78174877    -0.11100
C1510       C  0.80449053  0.35002349  0.80944215     0.03500
C1511       C  0.80629319  0.32012089  0.81759941    -0.10600
H1512       H  0.74516516  0.26352110  0.75676746     0.09100
H1513       H  0.78181333  0.37288351  0.77616022     0.06600
H1514       H  0.82409790  0.32131286  0.83875516     0.06500
C1515       C  0.90600651  0.04775926  0.87732882     0.03500
C1516       C  0.88496120  0.01569461  0.85921581    -0.12600
C1517       C  0.88430588  0.48556150  0.87486837     0.01000
C1518       C  0.90529452  0.48657922  0.90374335    -0.11100
C1519       C  0.93030495  0.01933526  0.91562291     0.03500
C1520       C  0.92894725  0.04942517  0.90552081    -0.10600
H1521       H  0.86644976  0.01360886  0.83847611     0.09100
H1522       H  0.90508318  0.46267107  0.91091981     0.06600
H1523       H  0.94477436  0.07370409  0.92011268     0.06500
C1524       C  0.72822472  0.48961218  0.80412624     0.03500
C1525       C  0.72922908  0.46864017  0.77498642    -0.12600
C1526       C  0.69876280  0.43683528  0.76603904     0.01000
C1527       C  0.66833431  0.42636642  0.78695829    -0.11100
C1528       C  0.66677526  0.44702448  0.81496841     0.03500
C1529       C  0.69656861  0.47885405  0.82328944    -0.10600
H1530       H  0.75319214  0.47711650  0.75947758     0.11800
H1531       H  0.64490669  0.40165295  0.78132702     0.06600
H1532       H  0.69506401  0.49567264  0.84409157     0.06500
C1533       C  0.96486409  0.35195176  0.88364643     0.03500
C1534       C  0.96435063  0.37471826  0.91101736    -0.12600
C1535       C  0.99560706  0.40510405  0.92109988     0.01000
C1536       C  0.52661419  0.41195139  0.90233853    -0.11100
C1537       C  0.52790577  0.39007012  0.87558944     0.03500
C1538       C  0.49733688  0.35895165  0.86678636    -0.10600
H1539       H  0.93997890  0.36857126  0.92460752     0.09100
H1540       H  0.55068217  0.43587403  0.90853980     0.06600
H1541       H  0.49874863  0.34097558  0.84746777     0.06500
C1542       C  0.65684100  0.10331013  0.86560381     0.03500
C1543       C  0.63472739  0.07983444  0.89302638    -0.12600
C1544       C  0.60401067  0.07977005  0.90414115     0.01000
C1545       C  0.59343558  0.10028049  0.88505849    -0.11100
C1546       C  0.61398377  0.12263979  0.85735897     0.03500
C1547       C  0.64626770  0.12523602  0.84849200    -0.10600
H1548       H  0.64213554  0.06288356  0.90693529     0.09100
H1549       H  0.56909226  0.09958305  0.89220010     0.06600
H1550       H  0.66340266  0.14499303  0.82921896     0.06500
C1551       C  0.51847781  0.22934890  0.79617459     0.03500
C1552       C  0.52733606  0.20559040  0.81149774    -0.12600
C1553       C  0.55875890  0.20690145  0.80225894     0.01000
C1554       C  0.58123140  0.23126491  0.77707259    -0.11100
C1555       C  0.57362993  0.25539715  0.76057862     0.03500
C1556       C  0.54196168  0.25472732  0.77065658    -0.10600
H1557       H  0.50969108  0.18602957  0.83076693     0.09100
H1558       H  0.60548748  0.23143238  0.77092205     0.06600
H1559       H  0.53565239  0.27338012  0.75889984     0.06500
C1560       C  0.86403734  0.20689294  0.85763466     0.02700
C1561       C  0.82686138  0.19102194  0.85396010     0.02700
C1562       C  0.80620306  0.15389423  0.85371610     0.02700
C1563       C  0.82283488  0.13324087  0.85189040     0.02700
C1564       C  0.85982388  0.14921524  0.85587100     0.02700
C1565       C  0.88076691  0.18627025  0.85526729     0.02700
O1566       O  0.55538486  0.99853325  0.07655145    -0.78100
C1567       C  0.53362530  0.08337993  0.06337668     0.82900
O1568       O  0.93433086  0.44337317  0.04107827    -0.79200
O1569       O  0.98002356  0.04648704  0.95615913    -0.80700
O1570       O  0.58378868  0.03336734  0.94803997    -0.80500
O1571       O  0.57971948  0.48895130  0.03175457    -0.79100
Zn1572     Zn  0.51728684  0.00743178  0.05865958     1.55700
O1573       O  0.56142810  0.06891156  0.94930885    -0.80500
Cd1574     Cd  0.55144857  0.99626202  0.98641307     1.59700
Cd1575     Cd  0.96661122  0.46670650  0.99580013     1.59600
O1576       O  0.52786394  0.45270131  0.95879058    -0.80500
O1577       O  0.51415390  0.00546963  0.00614081    -1.91000
Cd1578     Cd  0.52168124  0.05126562  0.98691148     1.59900
O1579       O  0.97020741  0.42949560  0.96250879    -0.80500
O1580       O  0.53379378  0.08789397  0.02884223    -0.79100
C1581       C  0.94206318  0.44851198  0.07503628     0.83400
C1582       C  0.57737521  0.49133899  0.06639059     0.83100
O1583       O  0.52770569  0.05448311  0.07707379    -0.78100
C1584       C  0.58236463  0.05962026  0.93583346     0.83900
O1585       O  0.97229116  0.47143823  0.08618189    -0.78200
C1586       C  0.49732734  0.42906162  0.94924879     0.84000
C1587       C  0.95331200  0.01859163  0.94487229     0.84300
O1588       O  0.94384577  0.48705367  0.96264919    -0.80600
O1589       O  0.64206485  0.34828446  0.60014055    -0.78100
C1590       C  0.75425523  0.39549611  0.61096100     0.82900
O1591       O  0.65784415  0.25577359  0.64893203    -0.79200
O1592       O  0.74668848  0.35107375  0.72157494    -0.80700
O1593       O  0.66558102  0.39131744  0.72439972    -0.80500
O1594       O  0.61701112  0.36075595  0.64659073    -0.79100
Zn1595     Zn  0.67785938  0.33728274  0.61990450     1.55700
O1596       O  0.72340457  0.41197179  0.72428808    -0.80500
Cd1597     Cd  0.64052043  0.34876692  0.69027247     1.59700
Cd1598     Cd  0.66802343  0.29136930  0.69149641     1.59600
O1599       O  0.60122325  0.30792015  0.72285297    -0.80500
O1600       O  0.67820830  0.33829167  0.67263607    -1.91000
Cd1601     Cd  0.72639609  0.37519131  0.68948287     1.59900
O1602       O  0.62371939  0.27257528  0.72338153    -0.80500
O1603       O  0.76078408  0.40017385  0.64524440    -0.79100
C1604       C  0.65978679  0.26090013  0.61442973     0.83400
C1605       C  0.62055010  0.35737350  0.61227887     0.83100
O1606       O  0.72430847  0.37272921  0.59905356    -0.78100
C1607       C  0.69634159  0.41275837  0.73600843     0.83900
O1608       O  0.66706572  0.29027264  0.60089193    -0.78200
C1609       C  0.60045392  0.28007989  0.73382124     0.84000
C1610       C  0.73754849  0.32074571  0.73410919     0.84300
O1611       O  0.70850925  0.29412137  0.72496597    -0.80600
C1612       C  0.98188114  0.23133466  0.84672631    -0.05400
C1613       C  0.98578309  0.22675451  0.80918014     0.00500
C1614       C  0.95547439  0.21131733  0.78688427    -0.08000
C1615       C  0.92232380  0.20005238  0.80329569    -0.05400
C1616       C  0.91808390  0.20243154  0.84137586     0.00500
C1617       C  0.94877965  0.21907974  0.86340125    -0.07900
C1618       C  0.94892380  0.22389315  0.90444324     0.62400
H1619       H  0.00511321  0.24279119  0.86381455     0.13100
H1620       H  0.89898948  0.18806837  0.78648785     0.13100
C1621       C  0.95801615  0.20569617  0.74615090     0.62700
F1622       F  0.96630627  0.25916760  0.91261153    -0.22500
F1623       F  0.96622698  0.20864510  0.92099837    -0.19800
F1624       F  0.91587675  0.20908508  0.91906852    -0.19500
F1625       F  0.97450455  0.18629856  0.74051725    -0.19500
F1626       F  0.97702061  0.23762680  0.72901334    -0.19900
F1627       F  0.92530998  0.18808827  0.72989804    -0.22500
C1628       C  0.71201121  0.10928937  0.89046009    -0.05400
C1629       C  0.69320484  0.10915171  0.85948343     0.00500
C1630       C  0.71118545  0.11888088  0.82523056    -0.08000
C1631       C  0.74802334  0.13435670  0.82470894    -0.05400
C1632       C  0.76702445  0.13643926  0.85632762     0.00500
C1633       C  0.74813668  0.12161526  0.88945948    -0.07900
C1634       C  0.76388708  0.11880099  0.92530206     0.62400
H1635       H  0.69882447  0.10134346  0.91673394     0.13100
H1636       H  0.76205562  0.14417495  0.79909181     0.13100
C1637       C  0.69279419  0.11165962  0.78854826     0.62700
F1638       F  0.75465909  0.13396668  0.95336968    -0.22500
F1639       F  0.79968400  0.13488767  0.92427413    -0.19800
F1640       F  0.75085198  0.08396601  0.93353206    -0.19500
F1641       F  0.69820348  0.14260447  0.77342689    -0.19500
F1642       F  0.65722961  0.08858434  0.79150806    -0.19900
F1643       F  0.70645303  0.09671527  0.76497194    -0.22500
C1644       C  0.56796516  0.15645482  0.79649771    -0.05400
C1645       C  0.56966603  0.18336563  0.81857277     0.00500
C1646       C  0.58705121  0.19106108  0.85270428    -0.08000
C1647       C  0.60330055  0.17199788  0.86322602    -0.05400
C1648       C  0.60188150  0.14525631  0.84105150     0.00500
C1649       C  0.58321889  0.13659613  0.80762468    -0.07900
C1650       C  0.57899487  0.10618946  0.78432897     0.62400
H1651       H  0.55485194  0.15142947  0.77026011     0.13100
H1652       H  0.61646196  0.17708395  0.88944261     0.13100
C1653       C  0.58813560  0.21909306  0.87785138     0.62700
F1654       F  0.55900290  0.10161150  0.75340238    -0.22500
F1655       F  0.56261079  0.07572768  0.80454688    -0.19800
F1656       F  0.61155900  0.11210842  0.77307036    -0.19500
F1657       F  0.55435608  0.21034024  0.88789309    -0.19500
F1658       F  0.60375513  0.25088990  0.86003395    -0.19900
F1659       F  0.60690058  0.22275694  0.90952658    -0.22500
C1660       C  0.91478462  0.29610627  0.90497364    -0.05400
C1661       C  0.93312839  0.31758020  0.87533534     0.00500
C1662       C  0.92406690  0.30353600  0.83930546    -0.08000
C1663       C  0.90193598  0.26736655  0.83476269    -0.05400
C1664       C  0.88565662  0.24529589  0.86471270     0.00500
C1665       C  0.89077876  0.26039508  0.90045951    -0.07900
C1666       C  0.87287692  0.24081861  0.93527467     0.62400
H1667       H  0.92069406  0.30686977  0.93249433     0.13100
H1668       H  0.89693473  0.25628327  0.80737615     0.13100
C1669       C  0.93590590  0.32553771  0.80490616     0.62700
F1670       F  0.89777343  0.24671688  0.96164329    -0.22500
F1671       F  0.85290059  0.20539246  0.93015716    -0.19800
F1672       F  0.85154373  0.25314218  0.94861177    -0.19500
F1673       F  0.95916536  0.31881435  0.78576471    -0.19500
F1674       F  0.45293510  0.35967742  0.81172515    -0.19900
F1675       F  0.90713748  0.31683150  0.78292585    -0.22500
C1676       C  0.77031744  0.05081168  0.79337276    -0.05400
C1677       C  0.75763958  0.02445451  0.81998329     0.00500
C1678       C  0.77007903  0.03373475  0.85657320    -0.08000
C1679       C  0.79105434  0.06929841  0.86591311    -0.05400
C1680       C  0.80206567  0.09583089  0.83967632     0.00500
C1681       C  0.79299273  0.08620433  0.80227935    -0.07900
C1682       C  0.80630740  0.11163026  0.77036676     0.62400
H1683       H  0.76154023  0.04382864  0.76528095     0.13100
H1684       H  0.79914172  0.07639426  0.89409092     0.13100
C1685       C  0.76286220  0.00735636  0.88662958     0.62700
F1686       F  0.77815075  0.11035670  0.75223636    -0.22500
F1687       F  0.82417689  0.10176419  0.74615864    -0.19800
F1688       F  0.82872646  0.14576832  0.78057393    -0.19500
F1689       F  0.79995094  0.51031788  0.89065768    -0.19500
F1690       F  0.74636866  0.97332720  0.87399193    -0.19900
F1691       F  0.74222911  0.01044974  0.91350331    -0.22500
C1692       C  0.60489604  0.43096549  0.80983120    -0.05400
C1693       C  0.63230508  0.43506829  0.83265652     0.00500
C1694       C  0.62487454  0.42216415  0.86893522    -0.08000
C1695       C  0.58983202  0.40531925  0.88106112    -0.05400
C1696       C  0.56236316  0.40113339  0.85814202     0.00500
C1697       C  0.56993709  0.41417248  0.82189243    -0.07900
C1698       C  0.54139279  0.41032507  0.79593739     0.62400
H1699       H  0.61119184  0.44037307  0.78189432     0.13100
H1700       H  0.58357732  0.39612241  0.90906701     0.13100
C1701       C  0.65368416  0.42632669  0.89472318     0.62700
F1702       F  0.55494370  0.42733044  0.76301421    -0.22500
F1703       F  0.52218285  0.42410541  0.81166540    -0.19800
F1704       F  0.51960390  0.37542827  0.78827168    -0.19500
F1705       F  0.67338384  0.93654587  0.90291817    -0.19500
F1706       F  0.67284788  0.41252465  0.87892276    -0.19900
F1707       F  0.64035123  0.40951184  0.92777850    -0.22500
C1708       C  0.88945150  0.08990138  0.90094181    -0.05400
C1709       C  0.89995922  0.07773563  0.87068754     0.00500
C1710       C  0.90078494  0.09206268  0.83557946    -0.08000
C1711       C  0.88760375  0.11529851  0.83180883    -0.05400
C1712       C  0.87623755  0.12681707  0.86219189     0.00500
C1713       C  0.87853498  0.11468524  0.89768701    -0.07900
C1714       C  0.86956972  0.12597086  0.93348942     0.62400
H1715       H  0.88902395  0.07924986  0.92781295     0.13100
H1716       H  0.88636232  0.12470040  0.80477477     0.13100
C1717       C  0.91622602  0.08488706  0.80157904     0.62700
F1718       F  0.89802431  0.13841117  0.95683775    -0.22500
F1719       F  0.84134537  0.09768134  0.94981375    -0.19800
F1720       F  0.86145215  0.15188088  0.92917291    -0.19500
F1721       F  0.88988948  0.06669616  0.77634934    -0.19500
F1722       F  0.93295844  0.06611892  0.80885304    -0.19900
F1723       F  0.94077026  0.11630344  0.78623112    -0.22500
C1724       C  0.77930248  0.24484130  0.84459569    -0.05400
C1725       C  0.78922415  0.25800226  0.80894370     0.00500
C1726       C  0.80895134  0.24692811  0.78763402    -0.08000
C1727       C  0.81931547  0.22428669  0.80345645    -0.05400
C1728       C  0.81155215  0.21294352  0.84015432     0.00500
C1729       C  0.79016153  0.22281921  0.86078664    -0.07900
C1730       C  0.77832855  0.21218260  0.89990599     0.62400
H1731       H  0.76428065  0.25350872  0.86084973     0.13100
H1732       H  0.83454945  0.21582317  0.78737937     0.13100
C1733       C  0.81979478  0.25976333  0.74865943     0.62700
F1734       F  0.78812798  0.24164197  0.92115923    -0.22500
F1735       F  0.79247047  0.19370752  0.91520673    -0.19800
F1736       F  0.74218623  0.19184199  0.90082422    -0.19500
F1737       F  0.83909114  0.29581649  0.74822819    -0.19500
F1738       F  0.79023429  0.24874070  0.72730573    -0.19900
F1739       F  0.84007546  0.24707818  0.73309331    -0.22500
C1740       C  0.85698890  0.40822637  0.81164795    -0.05400
C1741       C  0.82593693  0.38338524  0.82870453     0.00500
C1742       C  0.81335179  0.39250265  0.86025914    -0.08000
C1743       C  0.83215016  0.42696976  0.87336258    -0.05400
C1744       C  0.86307737  0.45189684  0.85610428     0.00500
C1745       C  0.87626508  0.44241419  0.82531705    -0.07900
C1746       C  0.91075035  0.46827703  0.80744388     0.62400
H1747       H  0.86576769  0.40061685  0.78726300     0.13100
H1748       H  0.82342949  0.43457730  0.89779326     0.13100
C1749       C  0.78064877  0.36567952  0.88020442     0.62700
F1750       F  0.91913867  0.45356623  0.77825558    -0.22500
F1751       F  0.93917851  0.98117315  0.82276486    -0.19800
F1752       F  0.90853674  0.49648127  0.79452678    -0.19500
F1753       F  0.78580970  0.33904030  0.89264336    -0.19500
F1754       F  0.75223029  0.35195515  0.85677564    -0.19900
F1755       F  0.77275049  0.38002310  0.91011650    -0.22500
C1756       C  0.98257398  0.07249841  0.51601153    -0.05400
C1757       C  0.98204490  0.04997839  0.48833014     0.00500
C1758       C  0.96935668  0.05207563  0.45293959    -0.08000
C1759       C  0.96289749  0.07953271  0.44573837    -0.05400
C1760       C  0.96468834  0.10267424  0.47300160     0.00500
C1761       C  0.97158685  0.09702561  0.50959399    -0.07900
C1762       C  0.96660208  0.11505216  0.54273935     0.62400
H1763       H  0.49234150  0.07030088  0.54432108     0.13100
H1764       H  0.95735445  0.08381205  0.41798646     0.13100
C1765       C  0.96238069  0.02626789  0.42212012     0.62700
F1766       F  0.94821703  0.09056828  0.56958086    -0.22500
F1767       F  0.94758208  0.13142422  0.53471346    -0.19800
F1768       F  0.50018627  0.13850346  0.55709736    -0.19500
F1769       F  0.93605498  0.49610327  0.42835622    -0.19500
F1770       F  0.49219694  0.02560842  0.41371398    -0.19900
F1771       F  0.94872544  0.03323929  0.39122624    -0.22500
C1772       C  0.55783803  0.43340374  0.56148090    -0.05400
C1773       C  0.56882159  0.41759854  0.53521943     0.00500
C1774       C  0.57100618  0.42780405  0.49789023    -0.08000
C1775       C  0.55844215  0.45036153  0.48791302    -0.05400
C1776       C  0.54444439  0.46373316  0.51369055     0.00500
C1777       C  0.54612671  0.45675965  0.55157721    -0.07900
C1778       C  0.03698775  0.47503282  0.58046492     0.62400
H1779       H  0.55674264  0.42581315  0.58985815     0.13100
H1780       H  0.55993446  0.45781171  0.45959092     0.13100
C1781       C  0.58553042  0.41502723  0.46741371     0.62700
F1782       F  0.04516886  0.46791219  0.61480009    -0.22500
F1783       F  0.00153127  0.46282021  0.57975770    -0.19800
F1784       F  0.05450943  0.51071477  0.57637822    -0.19500
F1785       F  0.55805562  0.38963757  0.44723956    -0.19500
F1786       F  0.60582462  0.40159423  0.48060142    -0.19900
F1787       F  0.60644545  0.44240815  0.44430247    -0.22500
C1788       C  0.55445842  0.28437915  0.49267399    -0.05400
C1789       C  0.53509128  0.29288268  0.51721833     0.00500
C1790       C  0.00072377  0.27315338  0.52042153    -0.08000
C1791       C  0.98530943  0.24047554  0.50317269    -0.05400
C1792       C  0.00505103  0.23035679  0.48114831     0.00500
C1793       C  0.53919048  0.25184026  0.47495359    -0.07900
C1794       C  0.56045318  0.24328487  0.44821458     0.62400
H1795       H  0.58179296  0.30335601  0.48795576     0.13100
H1796       H  0.95752962  0.22240788  0.50660509     0.13100
C1797       C  0.97879000  0.28293297  0.54484044     0.62700
F1798       F  0.59424871  0.27094136  0.44409717    -0.22500
F1799       F  0.54454815  0.23545985  0.41418907    -0.19800
F1800       F  0.56257000  0.21489826  0.46074961    -0.19500
F1801       F  0.97877369  0.31195280  0.53086173    -0.19500
F1802       F  0.99255741  0.29029421  0.57987547    -0.19900
F1803       F  0.94432064  0.25623134  0.54719906    -0.22500
C1804       C  0.93698182  0.38049648  0.44856237    -0.05400
C1805       C  0.92120812  0.35789620  0.47802226     0.00500
C1806       C  0.93170524  0.37113551  0.51416696    -0.08000
C1807       C  0.95353184  0.40735122  0.51939348    -0.05400
C1808       C  0.96896097  0.43032910  0.48984424     0.00500
C1809       C  0.96146923  0.41599793  0.45364220    -0.07900
C1810       C  0.97849988  0.43763506  0.41992750     0.62400
H1811       H  0.92915067  0.37017330  0.42111876     0.13100
H1812       H  0.95853856  0.41739912  0.54696213     0.13100
C1813       C  0.92166131  0.34819088  0.54787521     0.62700
F1814       F  0.46647405  0.41971910  0.38675920    -0.22500
F1815       F  0.51501989  0.44865756  0.41977193    -0.19800
F1816       F  0.97373020  0.46598734  0.41971079    -0.19500
F1817       F  0.90919138  0.31353110  0.53901128    -0.19500
F1818       F  0.89650931  0.35143469  0.56770315    -0.19900
F1819       F  0.95085838  0.35866598  0.56978635    -0.22500
C1820       C  0.56508541  0.08325782  0.54940888    -0.05400
C1821       C  0.55737105  0.07902439  0.51162611     0.00500
C1822       C  0.57174969  0.10940775  0.48939616    -0.08000
C1823       C  0.59332551  0.14221151  0.50573691    -0.05400
C1824       C  0.60248795  0.14589384  0.54299469     0.00500
C1825       C  0.58782200  0.11591860  0.56543947    -0.07900
C1826       C  0.59746200  0.11807891  0.60568558     0.62400
H1827       H  0.55417292  0.06030755  0.56629475     0.13100
H1828       H  0.60505642  0.16529083  0.48857106     0.13100
C1829       C  0.56689381  0.10942304  0.44846713     0.62700
F1830       F  0.58144206  0.08556749  0.62214211    -0.22500
F1831       F  0.58698014  0.13866863  0.62437582    -0.19800
F1832       F  0.63334280  0.13236639  0.60913761    -0.19500
F1833       F  0.04940362  0.12902257  0.43955385    -0.19500
F1834       F  0.54788673  0.07648266  0.43420901    -0.19900
F1835       F  0.59935966  0.12552698  0.43139909    -0.22500
C1836       C  0.75451949  0.23322975  0.54641025    -0.05400
C1837       C  0.72794564  0.23500768  0.52724549     0.00500
C1838       C  0.73505281  0.25215518  0.49305609    -0.08000
C1839       C  0.76928416  0.26750911  0.47909676    -0.05400
C1840       C  0.79598541  0.26599113  0.49836816     0.00500
C1841       C  0.78867523  0.24824547  0.53224721    -0.07900
C1842       C  0.81674565  0.24517476  0.55315695     0.62400
H1843       H  0.74829707  0.22036655  0.57282727     0.13100
H1844       H  0.77549726  0.28049849  0.45274877     0.13100
C1845       C  0.70662888  0.25433366  0.47173703     0.62700
F1846       F  0.80337964  0.22474045  0.58419236    -0.22500
F1847       F  0.84248546  0.27794515  0.56406559    -0.19800
F1848       F  0.83144952  0.23023296  0.53105833    -0.19500
F1849       F  0.69355357  0.27174709  0.49232914    -0.19500
F1850       F  0.67970506  0.22109536  0.46382137    -0.19900
F1851       F  0.71915721  0.27196102  0.43893102    -0.22500
C1852       C  0.63511386  0.04701889  0.44239138    -0.05400
C1853       C  0.66013670  0.05771096  0.47009115     0.00500
C1854       C  0.65024561  0.06058917  0.50653550    -0.08000
C1855       C  0.61461444  0.04865520  0.51447342    -0.05400
C1856       C  0.58892861  0.03578070  0.48697601     0.00500
C1857       C  0.59987321  0.03632041  0.44990359    -0.07900
C1858       C  0.57614152  0.02521847  0.41679730     0.62400
H1859       H  0.64289364  0.04541877  0.41446523     0.13100
H1860       H  0.60690722  0.04953011  0.54250005     0.13100
C1861       C  0.67615578  0.07646476  0.53779141     0.62700
F1862       F  0.57760411  0.99828818  0.39882039    -0.22500
F1863       F  0.58750729  0.05307690  0.39297379    -0.19800
F1864       F  0.54193006  0.01417096  0.42575275    -0.19500
F1865       F  0.71068536  0.09283543  0.52613971    -0.19500
F1866       F  0.67075921  0.05062215  0.56251328    -0.19900
F1867       F  0.67084190  0.10127375  0.55548938    -0.22500
C1868       C  0.89467645  0.46958881  0.55853644    -0.05400
C1869       C  0.86705818  0.44850569  0.53522222     0.00500
C1870       C  0.87447646  0.43745963  0.50147320    -0.08000
C1871       C  0.90980640  0.45105151  0.49059720    -0.05400
C1872       C  0.93785692  0.47512211  0.51244358     0.00500
C1873       C  0.93281011  0.98484507  0.55381260    -0.07900
C1874       C  0.95988983  0.00506464  0.58307043     0.62400
H1875       H  0.89232601  0.98058297  0.59074341     0.13100
H1876       H  0.91564394  0.44328196  0.46454578     0.13100
C1877       C  0.84511620  0.41114292  0.47738793     0.62700
F1878       F  0.95386208  0.98347774  0.61283930    -0.22500
F1879       F  0.95657033  0.03316514  0.59463373    -0.19800
F1880       F  0.99378426  0.01731302  0.57152883    -0.19500
F1881       F  0.82672150  0.42598772  0.46259642    -0.19500
F1882       F  0.82251908  0.38243655  0.49809703    -0.19900
F1883       F  0.85777638  0.39963641  0.44885973    -0.22500
C1884       C  0.76080041  0.97168424  0.49129569    -0.05400
C1885       C  0.77747677  0.48469810  0.51918988     0.00500
C1886       C  0.79093457  0.52002023  0.52932399    -0.08000
C1887       C  0.76525158  0.03185176  0.52188959    -0.05400
C1888       C  0.74820273  0.01914091  0.48830846     0.00500
C1889       C  0.74557326  0.98855185  0.47267911    -0.07900
C1890       C  0.72642179  0.97374055  0.43682007     0.62400
H1891       H  0.75905738  0.94807918  0.48014472     0.13100
H1892       H  0.76699159  0.05545535  0.53304211     0.13100
C1893       C  0.82056628  0.53778839  0.55678645     0.62700
F1894       F  0.72525350  0.94273307  0.42753027    -0.22500
F1895       F  0.74314794  0.99726700  0.40876755    -0.19800
F1896       F  0.69235526  0.96730532  0.43991103    -0.19500
F1897       F  0.85020474  0.53795053  0.54360674    -0.19500
F1898       F  0.81074510  0.52008304  0.58976638    -0.19900
F1899       F  0.82909567  0.57202500  0.56332621    -0.22500
C1900       C  0.78297564  0.37874457  0.19652529    -0.05400
C1901       C  0.75986279  0.37333646  0.16765016     0.00500
C1902       C  0.77364924  0.38260848  0.13142629    -0.08000
C1903       C  0.80893915  0.39291745  0.12508983    -0.05400
C1904       C  0.83180867  0.39677288  0.15354327     0.00500
C1905       C  0.81915138  0.39212865  0.19032565    -0.07900
C1906       C  0.84248489  0.40180156  0.22386035     0.62400
H1907       H  0.77272054  0.37278620  0.22425117     0.13100
H1908       H  0.81842397  0.39694309  0.09702269     0.13100
C1909       C  0.75309652  0.38175004  0.09778435     0.62700
F1910       F  0.83513835  0.42227255  0.24706767    -0.22500
F1911       F  0.87777973  0.42071858  0.21530057    -0.19800
F1912       F  0.83578853  0.37180078  0.24227262    -0.19500
F1913       F  0.71923775  0.37360936  0.10532731    -0.19500
F1914       F  0.75236127  0.35752390  0.07305359    -0.19900
F1915       F  0.76966306  0.41428591  0.08142913    -0.22500
C1916       C  0.54780961  0.28377836  0.16675740    -0.05400
C1917       C  0.54019197  0.28143259  0.20467109     0.00500
C1918       C  0.56764592  0.28951740  0.22992223    -0.08000
C1919       C  0.60162074  0.30124157  0.21616526    -0.05400
C1920       C  0.60977829  0.30736093  0.17870135     0.00500
C1921       C  0.58224170  0.29739299  0.15325691    -0.07900
C1922       C  0.58736180  0.30105635  0.11206976     0.62400
H1923       H  0.52678748  0.27719242  0.14736636     0.13100
H1924       H  0.62276663  0.30731020  0.23501875     0.13100
C1925       C  0.56208152  0.28762901  0.27122238     0.62700
F1926       F  0.56932578  0.26836980  0.09602723    -0.22500
F1927       F  0.62203825  0.31619494  0.10160015    -0.19800
F1928       F  0.57413454  0.32150526  0.09888427    -0.19500
F1929       F  0.54190582  0.25321905  0.28177107    -0.19500
F1930       F  0.54568383  0.30618281  0.28156479    -0.19900
F1931       F  0.59346269  0.30155623  0.29011055    -0.22500
C1932       C  0.92529432  0.30725516  0.17361651    -0.05400
C1933       C  0.95678012  0.32626424  0.19295403     0.00500
C1934       C  0.97198489  0.36266270  0.19754631    -0.08000
C1935       C  0.95426131  0.37888883  0.18309000    -0.05400
C1936       C  0.92230593  0.35973031  0.16446643     0.00500
C1937       C  0.90757142  0.32341818  0.15919255    -0.07900
C1938       C  0.87346892  0.30187506  0.13862082     0.62400
H1939       H  0.91417546  0.27926769  0.17097121     0.13100
H1940       H  0.96535885  0.40686248  0.18581026     0.13100
C1941       C  0.00633040  0.38403738  0.21782298     0.62700
F1942       F  0.84645329  0.30238769  0.15758064    -0.22500
F1943       F  0.86518700  0.26738021  0.13488835    -0.19800
F1944       F  0.87600928  0.31539290  0.10389794    -0.19500
F1945       F  0.03303836  0.38254206  0.19919034    -0.19500
F1946       F  0.00365304  0.37107750  0.25285129    -0.19900
F1947       F  0.01528456  0.41876959  0.22074745    -0.22500
C1948       C  0.73619403  0.44023671  0.16122779    -0.05400
C1949       C  0.72636014  0.41508808  0.18893912     0.00500
C1950       C  0.73660168  0.42683862  0.22574616    -0.08000
C1951       C  0.75758490  0.46279022  0.23279708    -0.05400
C1952       C  0.76825130  0.48762174  0.20488529     0.00500
C1953       C  0.75573662  0.47625569  0.16874705    -0.07900
C1954       C  0.76224379  0.50104981  0.13722244     0.62400
H1955       H  0.72834867  0.43176550  0.13326117     0.13100
H1956       H  0.76715255  0.47146211  0.26039784     0.13100
C1957       C  0.72712220  0.40339239  0.25898181     0.62700
F1958       F  0.73095011  0.49126179  0.11956743    -0.22500
F1959       F  0.78535681  0.49933030  0.11254507    -0.19800
F1960       F  0.77366155  0.03450589  0.14136612    -0.19500
F1961       F  0.75741657  0.40775829  0.27522131    -0.19500
F1962       F  0.70629329  0.36872168  0.25072687    -0.19900
F1963       F  0.70931651  0.41256651  0.28405937    -0.22500
C1964       C  0.62384447  0.24154107  0.18431568    -0.05400
C1965       C  0.64262312  0.26575659  0.15664433     0.00500
C1966       C  0.63884500  0.25337761  0.11978618    -0.08000
C1967       C  0.61323677  0.21873872  0.11176933    -0.05400
C1968       C  0.59279874  0.19520838  0.13921195     0.00500
C1969       C  0.60057681  0.20610633  0.17641275    -0.07900
C1970       C  0.58630278  0.18130836  0.20861314     0.62400
H1971       H  0.62759731  0.25025229  0.21256701     0.13100
H1972       H  0.60850647  0.21030130  0.08336646     0.13100
C1973       C  0.66064474  0.27474365  0.08750607     0.62700
F1974       F  0.61342007  0.18784439  0.23228942    -0.22500
F1975       F  0.57132047  0.14680106  0.19789861    -0.19800
F1976       F  0.56173474  0.18645376  0.22723297    -0.19500
F1977       F  0.68466210  0.30841030  0.09683907    -0.19500
F1978       F  0.63898940  0.27566027  0.06068634    -0.19900
F1979       F  0.67869255  0.25919822  0.07293382    -0.22500
C1980       C  0.91646993  0.06983217  0.19029304    -0.05400
C1981       C  0.89357005  0.07885559  0.17341964     0.00500
C1982       C  0.90535670  0.10282828  0.14405187    -0.08000
C1983       C  0.94037131  0.11724928  0.13236062    -0.05400
C1984       C  0.96344295  0.10860061  0.14967078     0.00500
C1985       C  0.95144793  0.08435706  0.17886550    -0.07900
C1986       C  0.97568144  0.07436852  0.19817630     0.62400
H1987       H  0.90685444  0.05199999  0.21328585     0.13100
H1988       H  0.94998027  0.13512034  0.10941044     0.13100
C1989       C  0.88089650  0.11286629  0.12538213     0.62700
F1990       F  0.95877581  0.05077301  0.22621910    -0.22500
F1991       F  0.50408243  0.09738693  0.20877301    -0.19800
F1992       F  0.98830632  0.05930302  0.17354167    -0.19500
F1993       F  0.86943338  0.12874037  0.15035172    -0.19500
F1994       F  0.85225859  0.08326736  0.11154507    -0.19900
F1995       F  0.89723895  0.13579635  0.09667939    -0.22500
C1996       C  0.73286134  0.28853885  0.15461649    -0.05400
C1997       C  0.71609859  0.29682625  0.18250967     0.00500
C1998       C  0.71468574  0.28366908  0.21848543    -0.08000
C1999       C  0.72980106  0.26265200  0.22484176    -0.05400
C2000       C  0.74459358  0.25258699  0.19657669     0.00500
C2001       C  0.74729651  0.26676659  0.16095579    -0.07900
C2002       C  0.76516267  0.26009197  0.12874262     0.62400
H2003       H  0.73456339  0.29907472  0.12743099     0.13100
H2004       H  0.72777172  0.25186456  0.25199373     0.13100
C2005       C  0.69722239  0.28993628  0.25141334     0.62700
F2006       F  0.78906436  0.29160867  0.11309384    -0.22500
F2007       F  0.74026978  0.24021349  0.10278685    -0.19800
F2008       F  0.78313900  0.24313310  0.13862115    -0.19500
F2009       F  0.67520130  0.25850444  0.26844125    -0.19500
F2010       F  0.67725076  0.30477987  0.24250215    -0.19900
F2011       F  0.72271544  0.31149663  0.27606551    -0.22500
C2012       C  0.62972812  0.42266567  0.17110001    -0.05400
C2013       C  0.63542258  0.43323553  0.13422319     0.00500
C2014       C  0.64952332  0.41825749  0.10992439    -0.08000
C2015       C  0.65727021  0.39308583  0.12359739    -0.05400
C2016       C  0.65367158  0.38402193  0.16097636     0.00500
C2017       C  0.63942373  0.39903879  0.18523135    -0.07900
C2018       C  0.63457755  0.39224221  0.22607093     0.62400
H2019       H  0.61929935  0.43459815  0.18964151     0.13100
H2020       H  0.66795231  0.38142122  0.10525656     0.13100
C2021       C  0.65799670  0.42993291  0.07020709     0.62700
F2022       F  0.65150109  0.42366722  0.24476959    -0.22500
F2023       F  0.64783585  0.37174673  0.23838313    -0.19800
F2024       F  0.59919242  0.37585294  0.23440534    -0.19500
F2025       F  0.67853891  0.46585451  0.06841147    -0.19500
F2026       F  0.62732559  0.41960882  0.05109384    -0.19900
F2027       F  0.67615545  0.41567532  0.05295193    -0.22500
C2028       C  0.70337536  0.08590030  0.12719162    -0.05400
C2029       C  0.67421405  0.06003076  0.14605758     0.00500
C2030       C  0.66322232  0.06813119  0.17940032    -0.08000
C2031       C  0.68257480  0.10217676  0.19336931    -0.05400
C2032       C  0.71175632  0.12812078  0.17455293     0.00500
C2033       C  0.72249852  0.12011545  0.14097381    -0.07900
C2034       C  0.75388410  0.14761571  0.11994069     0.62400
H2035       H  0.71056632  0.07915346  0.10120064     0.13100
H2036       H  0.67523342  0.10889031  0.21929344     0.13100
C2037       C  0.63085212  0.04101174  0.19964440     0.62700
F2038       F  0.76054858  0.13406490  0.08854188    -0.22500
F2039       F  0.78343781  0.16131111  0.14177267    -0.19800
F2040       F  0.74758356  0.17405411  0.10959970    -0.19500
F2041       F  0.63506753  0.01302147  0.20901942    -0.19500
F2042       F  0.60170486  0.02941979  0.17746362    -0.19900
F2043       F  0.62472590  0.05437623  0.23150013    -0.22500
C2044       C  0.63144807  0.96404327  0.12045928     0.03500
C2045       C  0.60596080  0.96186738  0.09537248    -0.12600
C2046       C  0.60470473  0.99217888  0.08603467     0.01000
C2047       C  0.62637058  0.52304020  0.10788784    -0.11100
C2048       C  0.65135113  0.52560175  0.13284677     0.03500
C2049       C  0.65470475  0.99661135  0.13636574    -0.10600
H2050       H  0.58660737  0.93689075  0.08429889     0.09100
H2051       H  0.62420739  0.54597537  0.10201856     0.06600
H2052       H  0.67401352  0.99871269  0.15611672     0.06500
C2053       C  0.75144074  0.72448577  0.20168277     0.03500
C2054       C  0.77190485  0.72571603  0.23237686    -0.12600
C2055       C  0.77333549  0.69568190  0.24294345     0.01000
C2056       C  0.75553186  0.66537078  0.22165077    -0.11100
C2057       C  0.73516462  0.66362861  0.19179777     0.03500
C2058       C  0.73267649  0.69292614  0.18210636    -0.10600
H2059       H  0.78537256  0.74935320  0.24859377     0.09100
H2060       H  0.75668286  0.64213211  0.22874196     0.06600
H2061       H  0.71497370  0.69074752  0.16038255     0.06500
C2062       C  0.56029867  0.65964412  0.13399735     0.03500
C2063       C  0.52709381  0.65028577  0.14892690    -0.12600
C2064       C  0.99536079  0.61926538  0.13848352     0.01000
C2065       C  0.99824679  0.59873086  0.11130007    -0.11100
C2066       C  0.53209382  0.60794162  0.09442929     0.03500
C2067       C  0.56261424  0.63802131  0.10644848    -0.10600
H2068       H  0.52438543  0.66671212  0.16933298     0.09100
H2069       H  0.97505092  0.57478623  0.10292723     0.06600
H2070       H  0.58779783  0.64437299  0.09474131     0.06500
C2071       C  0.79796881  0.52325491  0.21277157     0.03500
C2072       C  0.82903185  0.53451398  0.19251066    -0.12600
C2073       C  0.85824172  0.56692418  0.19947676     0.01000
C2074       C  0.85742215  0.58773547  0.22759404    -0.11100
C2075       C  0.82753289  0.57703540  0.24947013     0.03500
C2076       C  0.79725418  0.54461173  0.24172428    -0.10600
H2077       H  0.83066080  0.51782682  0.17159495     0.09100
H2078       H  0.88090207  0.61260424  0.23250408     0.06600
H2079       H  0.77378631  0.53585578  0.25818755     0.06500
C2080       C  0.50653434  0.78565320  0.22298644     0.03500
C2081       C  0.99639639  0.80737094  0.20320184    -0.12600
C2082       C  0.96612822  0.80808856  0.21323000     0.01000
C2083       C  0.94444000  0.78602968  0.24049387    -0.11100
C2084       C  0.95117792  0.76142939  0.25696834     0.03500
C2085       C  0.98114570  0.75966905  0.24589397    -0.10600
H2086       H  0.51557434  0.82784544  0.18631953     0.09100
H2087       H  0.92093792  0.78708275  0.24740490     0.06600
H2088       H  0.98575728  0.73972591  0.25713734     0.06500
C2089       C  0.86379279  0.90121599  0.13510895     0.03500
C2090       C  0.88448879  0.92336876  0.10620910    -0.12600
C2091       C  0.91669565  0.92551436  0.09703950     0.01000
C2092       C  0.92760439  0.90527213  0.11586064    -0.11100
C2093       C  0.90708410  0.88273355  0.14347704     0.03500
C2094       C  0.87527593  0.88063781  0.15319925    -0.10600
H2095       H  0.87611979  0.93934328  0.09179407     0.09100
H2096       H  0.95246421  0.90697535  0.10887371     0.06600
H2097       H  0.85957546  0.86316872  0.17497752     0.06500
C2098       C  0.66135425  0.80345600  0.16870924     0.02700
C2099       C  0.64537123  0.82454097  0.17157483     0.02700
C2100       C  0.66646815  0.86153726  0.17266790     0.02700
C2101       C  0.70345928  0.87723957  0.17570682     0.02700
C2102       C  0.71940962  0.85624305  0.17170081     0.02700
C2103       C  0.69833243  0.81919955  0.17212747     0.02700
O2104       O  0.88799086  0.66943823  0.41328948    -0.78100
C2105       C  0.86054592  0.74895014  0.40487060     0.82900
O2106       O  0.76570061  0.61511627  0.36792316    -0.79200
O2107       O  0.81979710  0.72059922  0.28777221    -0.80700
O2108       O  0.92189537  0.70765152  0.29058068    -0.80500
O2109       O  0.91220685  0.65850468  0.36494969    -0.79100
Zn2110     Zn  0.84866796  0.67532458  0.39468062     1.55700
O2111       O  0.90328750  0.74606466  0.29672050    -0.80500
Cd2112     Cd  0.88509532  0.66680413  0.32306504     1.59700
Cd2113     Cd  0.80040265  0.63972158  0.32426812     1.59600
O2114       O  0.86104758  0.62375238  0.28968984    -0.80500
O2115       O  0.84785434  0.67648630  0.34215336    -1.91000
Cd2116     Cd  0.85727697  0.72383681  0.32588395     1.59900
O2117       O  0.80315194  0.60187511  0.29136260    -0.80500
O2118       O  0.86271215  0.75607664  0.37074297    -0.79100
C2119       C  0.77334857  0.61578720  0.40173845     0.83400
C2120       C  0.91045451  0.66258676  0.39935680     0.83100
O2121       O  0.85499444  0.71951143  0.41633592    -0.78100
C2122       C  0.92460605  0.73712520  0.28343104     0.83900
O2123       O  0.80387420  0.63637858  0.41401910    -0.78200
C2124       C  0.83021130  0.60149777  0.27909829     0.84000
C2125       C  0.79262917  0.69364252  0.27547895     0.84300
O2126       O  0.78241278  0.66329326  0.28857285    -0.80600
C2127       C  0.83453133  0.94574199  0.55193444     0.03500
C2128       C  0.81373664  0.92297703  0.58039799    -0.12600
C2129       C  0.78110768  0.92023083  0.58932270     0.01000
C2130       C  0.77010849  0.94053055  0.57054146    -0.11100
C2131       C  0.79110333  0.96401438  0.54377643     0.03500
C2132       C  0.82311588  0.96650427  0.53425512    -0.10600
H2133       H  0.82243184  0.90720133  0.59466721     0.09100
H2134       H  0.74484067  0.93814484  0.57689878     0.06600
H2135       H  0.83925617  0.98474219  0.51316989     0.06500
C2136       C  0.69429127  0.56523549  0.46411936     0.03500
C2137       C  0.71587084  0.58830678  0.43642819    -0.12600
C2138       C  0.74792731  0.59019790  0.42750209     0.01000
C2139       C  0.75772845  0.56848168  0.44533166    -0.11100
C2140       C  0.73600670  0.54470970  0.47165649     0.03500
C2141       C  0.70451329  0.54333991  0.48144077    -0.10600
H2142       H  0.70813708  0.60509300  0.42264536     0.09100
H2143       H  0.78249125  0.56992394  0.43851850     0.06600
H2144       H  0.68782873  0.52507561  0.50221617     0.06500
C2145       C  0.62881909  0.68139213  0.55227606     0.03500
C2146       C  0.62659250  0.70264287  0.58044366    -0.12600
C2147       C  0.65684131  0.73432142  0.59028390     0.01000
C2148       C  0.68831804  0.74448985  0.57192167    -0.11100
C2149       C  0.69042239  0.72442688  0.54374742     0.03500
C2150       C  0.66110252  0.69277453  0.53424277    -0.10600
H2151       H  0.60176034  0.69532839  0.59357196     0.09100
H2152       H  0.71153205  0.76894077  0.57905695     0.06600
H2153       H  0.66340121  0.67704418  0.51263745     0.06500
C2154       C  0.88934254  0.82411583  0.47305915     0.03500
C2155       C  0.85694681  0.81319209  0.49076651    -0.12600
C2156       C  0.82714044  0.78214688  0.48009915     0.01000
C2157       C  0.82896210  0.76271290  0.45090698    -0.11100
C2158       C  0.86042056  0.77317590  0.43248484     0.03500
C2159       C  0.89081990  0.80371248  0.44362828    -0.10600
H2160       H  0.85481457  0.82883997  0.51253606     0.09100
H2161       H  0.80565362  0.73870744  0.44293044     0.06600
H2162       H  0.91544559  0.81135005  0.42975794     0.06500
C2163       C  0.57704603  0.88929691  0.54936949     0.03500
C2164       C  0.59776303  0.88983060  0.57928456    -0.12600
C2165       C  0.59871885  0.85931086  0.58843360     0.01000
C2166       C  0.57849340  0.82868957  0.56855105    -0.11100
C2167       C  0.55738327  0.82778808  0.53988118     0.03500
C2168       C  0.55673653  0.85796396  0.53007874    -0.10600
H2169       H  0.61365110  0.91380799  0.59432831     0.09100
H2170       H  0.57935316  0.80520155  0.57526604     0.06600
H2171       H  0.54026684  0.85701063  0.50757178     0.06500
C2172       C  0.96207784  0.63565450  0.46166560     0.03500
C2173       C  0.93730748  0.63335189  0.43549010    -0.12600
C2174       C  0.93725553  0.66355551  0.42381303     0.01000
C2175       C  0.96112496  0.69579497  0.43877067    -0.11100
C2176       C  0.98550044  0.69848660  0.46469503     0.03500
C2177       C  0.98678923  0.66873711  0.47528959    -0.10600
H2178       H  0.91773772  0.60821199  0.42484056     0.09100
H2179       H  0.95988068  0.71890467  0.43124180     0.06600
H2180       H  0.50440285  0.66920448  0.49514800     0.06500
C2181       C  0.99254710  0.96924483  0.50253522     0.02700
C2182       C  0.97689806  0.99088396  0.50321618     0.02700
C2183       C  0.49612725  0.52674410  0.49245568     0.02700
C2184       C  0.53343549  0.54283737  0.49488238     0.02700
C2185       C  0.54920742  0.52144876  0.49575123     0.02700
C2186       C  0.53014971  0.98407096  0.50398163     0.02700
C2187       C  0.78569939  0.78630036  0.79885473     0.03500
C2188       C  0.76155766  0.78511759  0.77225086    -0.12600
C2189       C  0.76097305  0.81602169  0.76312478     0.01000
C2190       C  0.78390363  0.84706713  0.78146146    -0.11100
C2191       C  0.80681213  0.84825981  0.80813707     0.03500
C2192       C  0.80808515  0.81811515  0.81663224    -0.10600
H2193       H  0.74376212  0.76071340  0.75889001     0.09100
H2194       H  0.78358000  0.87099981  0.77581779     0.06600
H2195       H  0.82640744  0.81935009  0.83717737     0.06500
C2196       C  0.90536808  0.54758934  0.88293668     0.03500
C2197       C  0.88386735  0.51584340  0.86466711    -0.12600
C2198       C  0.88718776  0.98611146  0.86865198     0.01000
C2199       C  0.90940649  0.98814363  0.89664611    -0.11100
C2200       C  0.92725020  0.51775892  0.92226125     0.03500
C2201       C  0.92740615  0.54847037  0.91161181    -0.10600
H2202       H  0.86631172  0.51452326  0.84318005     0.09100
H2203       H  0.91042192  0.96475097  0.90331152     0.06600
H2204       H  0.94393407  0.57273528  0.92593807     0.06500
C2205       C  0.72770920  0.98928030  0.80984152     0.03500
C2206       C  0.72971264  0.96898890  0.78034426    -0.12600
C2207       C  0.69977156  0.93698113  0.77041394     0.01000
C2208       C  0.66883803  0.92565755  0.79060182    -0.11100
C2209       C  0.66639134  0.94524991  0.81906056     0.03500
C2210       C  0.69553253  0.97719852  0.82855562    -0.10600
H2211       H  0.75396944  0.97823488  0.76517014     0.11800
H2212       H  0.64569508  0.90093256  0.78419904     0.06600
H2213       H  0.69308996  0.99283791  0.85014538     0.06500
C2214       C  0.96417337  0.84837582  0.88405053     0.03500
C2215       C  0.96353988  0.87172927  0.91059828    -0.12600
C2216       C  0.99496325  0.90139685  0.92161464     0.01000
C2217       C  0.52619320  0.90891357  0.90276993    -0.11100
C2218       C  0.52698012  0.88653539  0.87642731     0.03500
C2219       C  0.49617431  0.85594924  0.86738072    -0.10600
H2220       H  0.93891717  0.86658377  0.92283926     0.09100
H2221       H  0.55062485  0.93243770  0.90903886     0.06600
H2222       H  0.49736129  0.83785661  0.84805107     0.06500
C2223       C  0.65706266  0.60617052  0.87301663     0.03500
C2224       C  0.63467732  0.58252866  0.90016294    -0.12600
C2225       C  0.60524321  0.58410806  0.91300527     0.01000
C2226       C  0.59663667  0.60731567  0.89643719    -0.11100
C2227       C  0.61715973  0.62941209  0.86859074     0.03500
C2228       C  0.64809963  0.63004968  0.85788243    -0.10600
H2229       H  0.64073683  0.56378642  0.91217273     0.09100
H2230       H  0.57338934  0.60823115  0.90485367     0.06600
H2231       H  0.66525060  0.64946437  0.83833190     0.06500
C2232       C  0.52157116  0.73375908  0.80312960     0.03500
C2233       C  0.53275089  0.71302292  0.82141728    -0.12600
C2234       C  0.56536501  0.71639832  0.81382311     0.01000
C2235       C  0.58664606  0.73937764  0.78711506    -0.11100
C2236       C  0.57656320  0.76003032  0.76730682     0.03500
C2237       C  0.54394454  0.75790368  0.77601785    -0.10600
H2238       H  0.51592128  0.69405111  0.84161728     0.09100
H2239       H  0.61159607  0.74072165  0.78174215     0.06600
H2240       H  0.53610472  0.77440566  0.76191460     0.06500
C2241       C  0.86183321  0.70409272  0.85949903     0.02700
C2242       C  0.82460886  0.68776865  0.85592523     0.02700
C2243       C  0.80433974  0.65062935  0.85498544     0.02700
C2244       C  0.82168685  0.63074084  0.85180774     0.02700
C2245       C  0.85856325  0.64709323  0.85678944     0.02700
C2246       C  0.87906838  0.68403923  0.85684434     0.02700
O2247       O  0.55493180  0.49798409  0.08090382    -0.78100
C2248       C  0.53189794  0.58220502  0.06877293     0.82900
O2249       O  0.93362771  0.94488586  0.03570480    -0.79200
O2250       O  0.97769775  0.54485213  0.96134726    -0.80700
O2251       O  0.58419845  0.53570910  0.95451789    -0.80500
O2252       O  0.58048145  0.98991118  0.02740342    -0.79100
Zn2253     Zn  0.51721129  0.50721473  0.06333786     1.55700
O2254       O  0.56006955  0.56970817  0.95604962    -0.80500
Cd2255     Cd  0.55116135  0.49635649  0.99067861     1.59700
Cd2256     Cd  0.96704370  0.96727610  0.99092734     1.59600
O2257       O  0.52753783  0.95144369  0.95699229    -0.80500
O2258       O  0.51337683  0.50459110  0.01085662    -1.91000
Cd2259     Cd  0.51933927  0.54984723  0.99232782     1.59900
O2260       O  0.96967082  0.92861139  0.95921255    -0.80500
O2261       O  0.52972185  0.58583672  0.03439846    -0.79100
C2262       C  0.94135877  0.94947620  0.06967531     0.83400
C2263       C  0.57801843  0.99213525  0.06201014     0.83100
O2264       O  0.52818521  0.55411959  0.08238172    -0.78100
C2265       C  0.58235437  0.56199670  0.94309983     0.83900
O2266       O  0.97185255  0.97170744  0.08089391    -0.78200
C2267       C  0.49694821  0.92834536  0.94712650     0.84000
C2268       C  0.95064411  0.51689823  0.95086707     0.84300
O2269       O  0.94632993  0.98865707  0.95654406    -0.80600
O2270       O  0.64424237  0.84895920  0.60365428    -0.78100
C2271       C  0.75581577  0.89538081  0.61591257     0.82900
O2272       O  0.65481898  0.75409131  0.65103225    -0.79200
O2273       O  0.74594172  0.84899632  0.72433293    -0.80700
O2274       O  0.66746606  0.89286296  0.72712033    -0.80500
O2275       O  0.61873309  0.86131722  0.64975736    -0.79100
Zn2276     Zn  0.67928675  0.83743791  0.62364528     1.55700
O2277       O  0.72477268  0.91153064  0.72955737    -0.80500
Cd2278     Cd  0.64218548  0.84991541  0.69355004     1.59700
Cd2279     Cd  0.66722417  0.79026590  0.69406143     1.59600
O2280       O  0.60315558  0.81043143  0.72702731    -0.80500
O2281       O  0.67887104  0.83806288  0.67619848    -1.91000
Cd2282     Cd  0.72681624  0.87464433  0.69376741     1.59900
O2283       O  0.62391531  0.77354375  0.72727195    -0.80500
O2284       O  0.76171741  0.89997715  0.65027837    -0.79100
C2285       C  0.65777467  0.76016701  0.61666000     0.83400
C2286       C  0.62260861  0.85792753  0.61555559     0.83100
O2287       O  0.72615948  0.87252928  0.60343751    -0.78100
C2288       C  0.69794064  0.91337261  0.74001694     0.83900
O2289       O  0.66706792  0.79037899  0.60411493    -0.78200
C2290       C  0.60189206  0.78252064  0.73842189     0.84000
C2291       C  0.73700058  0.81845977  0.73595059     0.84300
O2292       O  0.70793929  0.79192291  0.72656929    -0.80600
C2293       C  0.98040841  0.73298040  0.84912455    -0.05400
C2294       C  0.98501404  0.72704039  0.81214587     0.00500
C2295       C  0.95486529  0.70872424  0.78991522    -0.08000
C2296       C  0.92136760  0.69697281  0.80570331    -0.05400
C2297       C  0.91659881  0.70071980  0.84340241     0.00500
C2298       C  0.94703069  0.71924663  0.86550067    -0.07900
C2299       C  0.94676786  0.72400660  0.90650704     0.62400
H2300       H  0.00348223  0.74632530  0.86630646     0.13100
H2301       H  0.89819819  0.68331136  0.78883054     0.13100
C2302       C  0.95788466  0.70014900  0.75018206     0.62700
F2303       F  0.96286311  0.75921826  0.91473840    -0.22500
F2304       F  0.96508402  0.70988656  0.92319123    -0.19800
F2305       F  0.91364052  0.70799421  0.92094402    -0.19500
F2306       F  0.97577793  0.68179427  0.74795034    -0.19500
F2307       F  0.97575069  0.73064678  0.73031838    -0.19900
F2308       F  0.92532568  0.67997549  0.73421949    -0.22500
C2309       C  0.71114269  0.60758170  0.89432794    -0.05400
C2310       C  0.69210587  0.60956020  0.86471725     0.00500
C2311       C  0.70890404  0.61893688  0.82984479    -0.08000
C2312       C  0.74549005  0.63245929  0.82773539    -0.05400
C2313       C  0.76502472  0.63263584  0.85818316     0.00500
C2314       C  0.74659313  0.61729011  0.89146083    -0.07900
C2315       C  0.76203798  0.61116709  0.92574070     0.62400
H2316       H  0.69872144  0.59973172  0.92099674     0.13100
H2317       H  0.75887631  0.64262833  0.80188928     0.13100
C2318       C  0.68933233  0.61353383  0.79414675     0.62700
F2319       F  0.75814384  0.62903629  0.95503411    -0.22500
F2320       F  0.79676235  0.62162787  0.92219763    -0.19800
F2321       F  0.74436061  0.57588930  0.93372056    -0.19500
F2322       F  0.69603348  0.64540022  0.78043263    -0.19500
F2323       F  0.65357037  0.59201774  0.79835574    -0.19900
F2324       F  0.70064377  0.59777913  0.76880102    -0.22500
C2325       C  0.56615057  0.66138706  0.81380138    -0.05400
C2326       C  0.57689169  0.69367619  0.83062794     0.00500
C2327       C  0.60213394  0.70569245  0.85892336    -0.08000
C2328       C  0.61608957  0.68456510  0.86954948    -0.05400
C2329       C  0.60566390  0.65242770  0.85235639     0.00500
C2330       C  0.58008604  0.64029381  0.82435603    -0.07900
C2331       C  0.56773611  0.60528574  0.80575037     0.62400
H2332       H  0.54723049  0.65322458  0.79175966     0.13100
H2333       H  0.63496917  0.69272379  0.89162412     0.13100
C2334       C  0.61413890  0.74062317  0.87756128     0.62700
F2335       F  0.54363917  0.59912309  0.77834122    -0.22500
F2336       F  0.55198262  0.57871128  0.83114329    -0.19800
F2337       F  0.59608102  0.60452473  0.79013632    -0.19500
F2338       F  0.58535212  0.74245007  0.89021164    -0.19500
F2339       F  0.63254005  0.76734484  0.85288428    -0.19900
F2340       F  0.63573164  0.74551718  0.90715294    -0.22500
C2341       C  0.91257810  0.79379743  0.90523501    -0.05400
C2342       C  0.93208848  0.81440585  0.87553111     0.00500
C2343       C  0.92375111  0.79973240  0.83969254    -0.08000
C2344       C  0.90051860  0.76376590  0.83570503    -0.05400
C2345       C  0.88317479  0.74251034  0.86586814     0.00500
C2346       C  0.88809528  0.75819545  0.90124293    -0.07900
C2347       C  0.87000492  0.73924967  0.93631094     0.62400
H2348       H  0.91819332  0.80500902  0.93257106     0.13100
H2349       H  0.89589842  0.75206167  0.80862457     0.13100
C2350       C  0.93800584  0.82085253  0.80493007     0.62700
F2351       F  0.89483788  0.74478040  0.96262503    -0.22500
F2352       F  0.84918012  0.70383928  0.93167707    -0.19800
F2353       F  0.84949890  0.75257304  0.94951962    -0.19500
F2354       F  0.96286285  0.81413206  0.78943848    -0.19500
F2355       F  0.45011806  0.85659137  0.81215733    -0.19900
F2356       F  0.91102898  0.81140058  0.78010430    -0.22500
C2357       C  0.77002412  0.55149350  0.78925300    -0.05400
C2358       C  0.75893573  0.52394599  0.81418990     0.00500
C2359       C  0.77281850  0.53134105  0.85026235    -0.08000
C2360       C  0.79298259  0.56633553  0.86164136    -0.05400
C2361       C  0.80197738  0.59412358  0.83744372     0.00500
C2362       C  0.79224194  0.58645200  0.79985880    -0.07900
C2363       C  0.80451310  0.61348761  0.76946771     0.62400
H2364       H  0.76025445  0.54576643  0.76137104     0.13100
H2365       H  0.80194435  0.57193104  0.88974824     0.13100
C2366       C  0.76760982  0.50337856  0.87755244     0.62700
F2367       F  0.77574171  0.61228363  0.75280585    -0.22500
F2368       F  0.82260722  0.60559481  0.74349703    -0.19800
F2369       F  0.82642619  0.64719191  0.78131934    -0.19500
F2370       F  0.79433360  0.01413756  0.90209038    -0.19500
F2371       F  0.75157231  0.47029208  0.86232455    -0.19900
F2372       F  0.74754756  0.50382427  0.90664235    -0.22500
C2373       C  0.60627348  0.93494099  0.81582668    -0.05400
C2374       C  0.63160588  0.93190599  0.83616656     0.00500
C2375       C  0.62147778  0.91026387  0.86748886    -0.08000
C2376       C  0.58615661  0.89362352  0.87862175    -0.05400
C2377       C  0.56095827  0.89717920  0.85857781     0.00500
C2378       C  0.57086026  0.91760699  0.82636791    -0.07900
C2379       C  0.54396417  0.92066074  0.80315436     0.62400
H2380       H  0.61444756  0.95031238  0.79094106     0.13100
H2381       H  0.57801659  0.87842220  0.90361704     0.13100
C2382       C  0.64794822  0.90492767  0.88885440     0.62700
F2383       F  0.55914052  0.94200283  0.77305157    -0.22500
F2384       F  0.52713663  0.93439917  0.82374618    -0.19800
F2385       F  0.51956166  0.88795031  0.79050599    -0.19500
F2386       F  0.67561479  0.46130823  0.90208879    -0.19500
F2387       F  0.66362145  0.89146114  0.86605673    -0.19900
F2388       F  0.63245550  0.88199773  0.91774317    -0.22500
C2389       C  0.89013703  0.59099307  0.90508933    -0.05400
C2390       C  0.90070357  0.57816418  0.87552236     0.00500
C2391       C  0.90151106  0.59141147  0.83990848    -0.08000
C2392       C  0.88729830  0.61355811  0.83469646    -0.05400
C2393       C  0.87541222  0.62541758  0.86434059     0.00500
C2394       C  0.87840752  0.61497203  0.90048873    -0.07900
C2395       C  0.86898015  0.62685485  0.93562911     0.62400
H2396       H  0.88988739  0.58118633  0.93237959     0.13100
H2397       H  0.88577588  0.62191262  0.80721184     0.13100
C2398       C  0.91800277  0.58393240  0.80702860     0.62700
F2399       F  0.89760092  0.64098225  0.95884431    -0.22500
F2400       F  0.84148294  0.59849732  0.95275104    -0.19800
F2401       F  0.85952789  0.65168891  0.93012247    -0.19500
F2402       F  0.89207877  0.56255847  0.78269722    -0.19500
F2403       F  0.93731883  0.56826584  0.81664278    -0.19900
F2404       F  0.94057523  0.61498520  0.78967401    -0.22500
C2405       C  0.77829133  0.74244512  0.84548882    -0.05400
C2406       C  0.78851985  0.75520467  0.80973744     0.00500
C2407       C  0.80748053  0.74313252  0.78860063    -0.08000
C2408       C  0.81723070  0.72026113  0.80484108    -0.05400
C2409       C  0.80924944  0.70934780  0.84161712     0.00500
C2410       C  0.78816419  0.71977126  0.86193702    -0.07900
C2411       C  0.77562308  0.70899083  0.90087733     0.62400
H2412       H  0.76371779  0.75178156  0.86152550     0.13100
H2413       H  0.83225778  0.71135797  0.78906700     0.13100
C2414       C  0.81809945  0.75504441  0.74933778     0.62700
F2415       F  0.78660008  0.73843785  0.92246675    -0.22500
F2416       F  0.78792766  0.68881771  0.91608935    -0.19800
F2417       F  0.73937336  0.69022829  0.90134190    -0.19500
F2418       F  0.83796265  0.79103576  0.74803150    -0.19500
F2419       F  0.78837759  0.74404994  0.72824838    -0.19900
F2420       F  0.83773991  0.74146811  0.73409969    -0.22500
C2421       C  0.85898628  0.90689661  0.80776016    -0.05400
C2422       C  0.82898013  0.88207398  0.82643916     0.00500
C2423       C  0.81718346  0.89190840  0.85809417    -0.08000
C2424       C  0.83606003  0.92675106  0.87012426    -0.05400
C2425       C  0.86575719  0.95172463  0.85109801     0.00500
C2426       C  0.87787774  0.94172729  0.81982031    -0.07900
C2427       C  0.91064149  0.96786451  0.79949033     0.62400
H2428       H  0.86698295  0.89885434  0.78311843     0.13100
H2429       H  0.82800873  0.93480823  0.89471789     0.13100
C2430       C  0.78448402  0.86570515  0.87853312     0.62700
F2431       F  0.91786082  0.95288146  0.76967924    -0.22500
F2432       F  0.93758170  0.47979906  0.83276780    -0.19800
F2433       F  0.90618156  0.99485652  0.78686430    -0.19500
F2434       F  0.78814849  0.83772398  0.88938041    -0.19500
F2435       F  0.75560476  0.85382631  0.85591099    -0.19900
F2436       F  0.77838896  0.88018222  0.90953462    -0.22500
C2437       C  0.98026064  0.57175100  0.51450448    -0.05400
C2438       C  0.97993164  0.55005970  0.48601185     0.00500
C2439       C  0.96839485  0.55378386  0.45067948    -0.08000
C2440       C  0.96225337  0.58164092  0.44451159    -0.05400
C2441       C  0.96385781  0.60402146  0.47264059     0.00500
C2442       C  0.97017869  0.59708995  0.50901005    -0.07900
C2443       C  0.96579401  0.61459963  0.54298520     0.62400
H2444       H  0.48904221  0.56865242  0.54086007     0.13100
H2445       H  0.95699299  0.58677669  0.41698004     0.13100
C2446       C  0.96222584  0.52901340  0.41904981     0.62700
F2447       F  0.94561233  0.58936052  0.56851140    -0.22500
F2448       F  0.94899891  0.63337156  0.53594953    -0.19800
F2449       F  0.49690839  0.63572753  0.55727483    -0.19500
F2450       F  0.93813516  0.99333420  0.43347943    -0.19500
F2451       F  0.49155215  0.52792358  0.40915940    -0.19900
F2452       F  0.95168033  0.53842540  0.38744036    -0.22500
C2453       C  0.55985336  0.93321485  0.56486744    -0.05400
C2454       C  0.57398324  0.92016325  0.53894993     0.00500
C2455       C  0.57913666  0.93288224  0.50247228    -0.08000
C2456       C  0.56465840  0.95363871  0.49193543    -0.05400
C2457       C  0.54717767  0.96386079  0.51708756     0.00500
C2458       C  0.54778221  0.95617554  0.55491135    -0.07900
C2459       C  0.03662263  0.97489238  0.58567309     0.62400
H2460       H  0.55728375  0.92432168  0.59292978     0.13100
H2461       H  0.56789300  0.96255425  0.46393426     0.13100
C2462       C  0.60028905  0.92606415  0.47397094     0.62700
F2463       F  0.04327444  0.96716623  0.62044238    -0.22500
F2464       F  0.00145757  0.96386622  0.58363684    -0.19800
F2465       F  0.05542063  0.01057070  0.58176742    -0.19500
F2466       F  0.57833581  0.90539244  0.44626232    -0.19500
F2467       F  0.61763480  0.90994803  0.48840235    -0.19900
F2468       F  0.62528889  0.95754604  0.45915122    -0.22500
C2469       C  0.55515722  0.78642787  0.49324453    -0.05400
C2470       C  0.53727077  0.79497702  0.51960079     0.00500
C2471       C  0.00140231  0.77223989  0.52776886    -0.08000
C2472       C  0.98594537  0.74005502  0.50951645    -0.05400
C2473       C  0.00508994  0.73159679  0.48466559     0.00500
C2474       C  0.53882849  0.75387444  0.47550636    -0.07900
C2475       C  0.55864595  0.74521878  0.44700812     0.62400
H2476       H  0.58222696  0.80534437  0.48716195     0.13100
H2477       H  0.95860531  0.72112602  0.51431555     0.13100
C2478       C  0.98026456  0.78034983  0.55517957     0.62700
F2479       F  0.59206372  0.77297934  0.44105371    -0.22500
F2480       F  0.54083271  0.73691759  0.41404976    -0.19800
F2481       F  0.56166208  0.71709432  0.45869846    -0.19500
F2482       F  0.97859097  0.80928738  0.54377242    -0.19500
F2483       F  0.99599811  0.78702430  0.58926076    -0.19900
F2484       F  0.94630693  0.75286130  0.55876420    -0.22500
C2485       C  0.93743915  0.88143970  0.45339860    -0.05400
C2486       C  0.92030799  0.85873609  0.48244300     0.00500
C2487       C  0.93079208  0.87119546  0.51880668    -0.08000
C2488       C  0.95372273  0.90719488  0.52462784    -0.05400
C2489       C  0.97020569  0.93041134  0.49539563     0.00500
C2490       C  0.96315886  0.91639416  0.45907725    -0.07900
C2491       C  0.98183827  0.93794862  0.42583465     0.62400
H2492       H  0.92973179  0.87169122  0.42574825     0.13100
H2493       H  0.95879563  0.91678478  0.55238498     0.13100
C2494       C  0.92006872  0.84760237  0.55205413     0.62700
F2495       F  0.46977835  0.91769176  0.39402860    -0.22500
F2496       F  0.51731487  0.94674281  0.42858391    -0.19800
F2497       F  0.97740074  0.96642225  0.42462512    -0.19500
F2498       F  0.90449725  0.81271160  0.54263985    -0.19500
F2499       F  0.89720184  0.85304792  0.57355403    -0.19900
F2500       F  0.94955744  0.85546256  0.57249407    -0.22500
C2501       C  0.56212614  0.58442637  0.54613476    -0.05400
C2502       C  0.55499334  0.58008721  0.50826164     0.00500
C2503       C  0.56911375  0.61054257  0.48610188    -0.08000
C2504       C  0.58978496  0.64348276  0.50268354    -0.05400
C2505       C  0.59861637  0.64732155  0.54010041     0.00500
C2506       C  0.58416501  0.61718575  0.56238165    -0.07900
C2507       C  0.59301794  0.61920648  0.60284145     0.62400
H2508       H  0.55116228  0.56146175  0.56302751     0.13100
H2509       H  0.60129089  0.66658664  0.48555646     0.13100
C2510       C  0.56514603  0.61051437  0.44500130     0.62700
F2511       F  0.57922872  0.58643282  0.61839952    -0.22500
F2512       F  0.57931854  0.63706685  0.62150620    -0.19800
F2513       F  0.62898384  0.63623343  0.60747285    -0.19500
F2514       F  0.05575577  0.63063165  0.43175668    -0.19500
F2515       F  0.54727981  0.57753617  0.43060461    -0.19900
F2516       F  0.59798164  0.62739200  0.42875750    -0.22500
C2517       C  0.74818961  0.72893690  0.54019049    -0.05400
C2518       C  0.72421811  0.73741966  0.52503935     0.00500
C2519       C  0.73443601  0.76182355  0.49615338    -0.08000
C2520       C  0.76904241  0.77722101  0.48314661    -0.05400
C2521       C  0.79317245  0.76902999  0.49858880     0.00500
C2522       C  0.78280141  0.74439904  0.52729512    -0.07900
C2523       C  0.80836592  0.73496352  0.54443469     0.62400
H2524       H  0.73969346  0.71068752  0.56281099     0.13100
H2525       H  0.77751384  0.79549512  0.46055153     0.13100
C2526       C  0.70881169  0.77142930  0.47942017     0.62700
F2527       F  0.79268869  0.71006455  0.57160946    -0.22500
F2528       F  0.83578838  0.76443658  0.55996383    -0.19800
F2529       F  0.82138776  0.72176724  0.51803906    -0.19500
F2530       F  0.69855328  0.78744315  0.50550404    -0.19500
F2531       F  0.67956795  0.74163600  0.46684799    -0.19900
F2532       F  0.72348652  0.79408912  0.45017800    -0.22500
C2533       C  0.63507524  0.54938158  0.44402009    -0.05400
C2534       C  0.65931800  0.56096952  0.47257378     0.00500
C2535       C  0.64810870  0.56345767  0.50849568    -0.08000
C2536       C  0.61212029  0.55055963  0.51503950    -0.05400
C2537       C  0.58735206  0.53696132  0.48667922     0.00500
C2538       C  0.59947499  0.53781091  0.45013739    -0.07900
C2539       C  0.57677508  0.52653684  0.41617878     0.62400
H2540       H  0.64386328  0.54803077  0.41649047     0.13100
H2541       H  0.60349838  0.55146814  0.54261784     0.13100
C2542       C  0.67283496  0.57995331  0.54059429     0.62700
F2543       F  0.57888091  0.49954590  0.39918104    -0.22500
F2544       F  0.58902270  0.55427243  0.39206799    -0.19800
F2545       F  0.54220313  0.51561680  0.42354564    -0.19500
F2546       F  0.70776008  0.59645873  0.53037590    -0.19500
F2547       F  0.66677992  0.55452841  0.56615145    -0.19900
F2548       F  0.66654719  0.60474610  0.55682102    -0.22500
C2549       C  0.89781449  0.97257036  0.56449663    -0.05400
C2550       C  0.86970581  0.95100147  0.54192093     0.00500
C2551       C  0.87642399  0.93910719  0.50833058    -0.08000
C2552       C  0.91153654  0.95188526  0.49708601    -0.05400
C2553       C  0.94009620  0.97635867  0.51808414     0.00500
C2554       C  0.92985430  0.48233913  0.54841279    -0.07900
C2555       C  0.95633371  0.50169402  0.57841730     0.62400
H2556       H  0.88865788  0.47686554  0.58493456     0.13100
H2557       H  0.91683086  0.94289582  0.47151830     0.13100
C2558       C  0.84653913  0.91241332  0.48499962     0.62700
F2559       F  0.94963367  0.47930085  0.60757898    -0.22500
F2560       F  0.95286467  0.52954094  0.59061078    -0.19800
F2561       F  0.99042200  0.51406983  0.56753047    -0.19500
F2562       F  0.82573600  0.92576769  0.47325871    -0.19500
F2563       F  0.82638643  0.88273405  0.50554568    -0.19900
F2564       F  0.85861373  0.90292696  0.45431616    -0.22500
C2565       C  0.74946469  0.46866209  0.49456027    -0.05400
C2566       C  0.77809443  0.98455442  0.52473032     0.00500
C2567       C  0.78020553  0.01481547  0.54067493    -0.08000
C2568       C  0.77582824  0.53847447  0.51391255    -0.05400
C2569       C  0.74773286  0.52244118  0.48937038     0.00500
C2570       C  0.73431172  0.48711567  0.47919932    -0.07900
C2571       C  0.70437794  0.46921950  0.45215952     0.62400
H2572       H  0.73934779  0.44139185  0.48784010     0.13100
H2573       H  0.78591864  0.56572599  0.52070466     0.13100
C2574       C  0.79831442  0.02899284  0.57717572     0.62700
F2575       F  0.69643997  0.43527144  0.44482054    -0.22500
F2576       F  0.71321594  0.48734117  0.41941798    -0.19800
F2577       F  0.67475527  0.46823865  0.46649167    -0.19500
F2578       F  0.78049705  0.00509497  0.60463649    -0.19500
F2579       F  0.79945126  0.05997843  0.58649870    -0.19900
F2580       F  0.83237557  0.03517068  0.57534467    -0.22500
C2581       C  0.78215256  0.88213804  0.18993113    -0.05400
C2582       C  0.75745144  0.87299832  0.16184863     0.00500
C2583       C  0.76954256  0.87954243  0.12480652    -0.08000
C2584       C  0.80465176  0.88954384  0.11726680    -0.05400
C2585       C  0.82905776  0.89722599  0.14526880     0.00500
C2586       C  0.81817088  0.89654769  0.18220874    -0.07900
C2587       C  0.84339951  0.91199647  0.21408097     0.62400
H2588       H  0.77335565  0.87871615  0.21816634     0.13100
H2589       H  0.81299692  0.89107924  0.08895608     0.13100
C2590       C  0.74732654  0.87656290  0.09186617     0.62700
F2591       F  0.83594397  0.93467733  0.23328464    -0.22500
F2592       F  0.87804708  0.93078577  0.20297922    -0.19800
F2593       F  0.83931925  0.88559779  0.23731706    -0.19500
F2594       F  0.71499013  0.87204848  0.10117501    -0.19500
F2595       F  0.74289999  0.84891975  0.07010596    -0.19900
F2596       F  0.76435139  0.90692077  0.07151580    -0.22500
C2597       C  0.54574810  0.78673243  0.17336657    -0.05400
C2598       C  0.53985985  0.78714833  0.21132211     0.00500
C2599       C  0.56801878  0.79581824  0.23575593    -0.08000
C2600       C  0.60115927  0.80501696  0.22094250    -0.05400
C2601       C  0.60779135  0.80831521  0.18298817     0.00500
C2602       C  0.57931451  0.79792367  0.15863657    -0.07900
C2603       C  0.58243512  0.79879394  0.11726363     0.62400
H2604       H  0.52408851  0.77977586  0.15472987     0.13100
H2605       H  0.62290514  0.81157026  0.23915547     0.13100
C2606       C  0.56403697  0.79752128  0.27705403     0.62700
F2607       F  0.56185057  0.76540192  0.10357052    -0.22500
F2608       F  0.61626657  0.81110472  0.10515429    -0.19800
F2609       F  0.57061255  0.82014894  0.10329118    -0.19500
F2610       F  0.54228918  0.76444811  0.29061962    -0.19500
F2611       F  0.55010775  0.81878331  0.28536869    -0.19900
F2612       F  0.59589526  0.81091321  0.29491714    -0.22500
C2613       C  0.92445578  0.81040630  0.17080347    -0.05400
C2614       C  0.95398848  0.82882988  0.19317685     0.00500
C2615       C  0.96751672  0.86474909  0.20005904    -0.08000
C2616       C  0.95045056  0.88117699  0.18433659    -0.05400
C2617       C  0.92057577  0.86260052  0.16242828     0.00500
C2618       C  0.90744220  0.82680421  0.15504474    -0.07900
C2619       C  0.87584732  0.80621066  0.13055535     0.62400
H2620       H  0.91440734  0.78274612  0.16649573     0.13100
H2621       H  0.96044660  0.90882144  0.18867065     0.13100
C2622       C  0.99941414  0.88532684  0.22414882     0.62700
F2623       F  0.84677818  0.80538647  0.14623817    -0.22500
F2624       F  0.86848973  0.77211006  0.12568933    -0.19800
F2625       F  0.88194344  0.82170946  0.09641475    -0.19500
F2626       F  0.02816183  0.88529232  0.20859737    -0.19500
F2627       F  0.99328300  0.87041063  0.25859038    -0.19900
F2628       F  0.00738400  0.91968584  0.22826590    -0.22500
C2629       C  0.73434366  0.93987423  0.15610904    -0.05400
C2630       C  0.72547683  0.91548779  0.18451784     0.00500
C2631       C  0.73769499  0.92818019  0.22064271    -0.08000
C2632       C  0.75943132  0.96420352  0.22633481    -0.05400
C2633       C  0.76928161  0.98828189  0.19774516     0.00500
C2634       C  0.75498842  0.97609576  0.16232776    -0.07900
C2635       C  0.76061675  0.00023183  0.13040780     0.62400
H2636       H  0.72485708  0.93061862  0.12869131     0.13100
H2637       H  0.77024839  0.97351655  0.25341812     0.13100
C2638       C  0.72962757  0.90570790  0.25454184     0.62700
F2639       F  0.72898809  0.98977826  0.11307570    -0.22500
F2640       F  0.78362958  0.99854933  0.10557520    -0.19800
F2641       F  0.77556404  0.53523696  0.14860931    -0.19500
F2642       F  0.76060778  0.91083602  0.26976268    -0.19500
F2643       F  0.70877786  0.87075561  0.24753843    -0.19900
F2644       F  0.71262391  0.91542584  0.28005371    -0.22500
C2645       C  0.62113687  0.74183356  0.18828502    -0.05400
C2646       C  0.63941824  0.76525659  0.15979313     0.00500
C2647       C  0.63570622  0.75171614  0.12343595    -0.08000
C2648       C  0.61142673  0.71642988  0.11675273    -0.05400
C2649       C  0.59142988  0.69366159  0.14484621     0.00500
C2650       C  0.59867532  0.70595278  0.18164965    -0.07900
C2651       C  0.58458183  0.68214731  0.21466560     0.62400
H2652       H  0.62469900  0.75152296  0.21615810     0.13100
H2653       H  0.60684711  0.70698857  0.08868600     0.13100
C2654       C  0.65564211  0.77259359  0.09008952     0.62700
F2655       F  0.61152663  0.69034355  0.23919096    -0.22500
F2656       F  0.57081051  0.64742709  0.20524107    -0.19800
F2657       F  0.55904950  0.68676569  0.23186513    -0.19500
F2658       F  0.67656262  0.80741766  0.09742166    -0.19500
F2659       F  0.63226230  0.76923493  0.06295155    -0.19900
F2660       F  0.67657997  0.75973964  0.07683263    -0.22500
C2661       C  0.91413695  0.56779697  0.19612670    -0.05400
C2662       C  0.89175295  0.57824186  0.18078685     0.00500
C2663       C  0.90338924  0.60263063  0.15183491    -0.08000
C2664       C  0.93813968  0.61670975  0.13953935    -0.05400
C2665       C  0.96080474  0.60676627  0.15544035     0.00500
C2666       C  0.94864584  0.58144356  0.18361623    -0.07900
C2667       C  0.97204838  0.56903542  0.20043299     0.62400
H2668       H  0.90441741  0.54927878  0.21852067     0.13100
H2669       H  0.94780984  0.63523397  0.11715913     0.13100
C2670       C  0.87896858  0.61324153  0.13407233     0.62700
F2671       F  0.95520455  0.54512996  0.22824029    -0.22500
F2672       F  0.50227483  0.59851805  0.21509278    -0.19800
F2673       F  0.98210401  0.55318949  0.17396448    -0.19500
F2674       F  0.86914329  0.63025336  0.15937332    -0.19500
F2675       F  0.84933950  0.58384043  0.12147003    -0.19900
F2676       F  0.89468901  0.63534719  0.10461826    -0.22500
C2677       C  0.73051972  0.78847044  0.15218064    -0.05400
C2678       C  0.71434609  0.79692899  0.18058885     0.00500
C2679       C  0.71385756  0.78401507  0.21648694    -0.08000
C2680       C  0.72952193  0.76340386  0.22231376    -0.05400
C2681       C  0.74416282  0.75350768  0.19373212     0.00500
C2682       C  0.74557944  0.76711764  0.15801496    -0.07900
C2683       C  0.76252033  0.76014001  0.12513288     0.62400
H2684       H  0.73123904  0.79854231  0.12496918     0.13100
H2685       H  0.72815644  0.75287930  0.24947468     0.13100
C2686       C  0.69681600  0.78994623  0.25001829     0.62700
F2687       F  0.78476322  0.79133326  0.10781456    -0.22500
F2688       F  0.73671994  0.73869298  0.10069551    -0.19800
F2689       F  0.78206538  0.74468068  0.13450655    -0.19500
F2690       F  0.67406377  0.75814530  0.26594139    -0.19500
F2691       F  0.67784420  0.80617792  0.24242329    -0.19900
F2692       F  0.72253042  0.81005307  0.27516347    -0.22500
C2693       C  0.63066794  0.92517299  0.16983479    -0.05400
C2694       C  0.63377929  0.93289720  0.13215175     0.00500
C2695       C  0.64431887  0.91452471  0.10802513    -0.08000
C2696       C  0.65201481  0.88968791  0.12280588    -0.05400
C2697       C  0.65131166  0.88371159  0.16074435     0.00500
C2698       C  0.63997280  0.90153463  0.18476730    -0.07900
C2699       C  0.63795153  0.89777673  0.22607582     0.62400
H2700       H  0.62265258  0.93935258  0.18821476     0.13100
H2701       H  0.66056834  0.87588442  0.10474667     0.13100
C2702       C  0.64936825  0.92226212  0.06717292     0.62700
F2703       F  0.65785081  0.93028135  0.24204846    -0.22500
F2704       F  0.65009612  0.87644083  0.23873525    -0.19800
F2705       F  0.60344833  0.88409188  0.23718391    -0.19500
F2706       F  0.67128468  0.95759093  0.06150407    -0.19500
F2707       F  0.61736560  0.91192648  0.05091124    -0.19900
F2708       F  0.66422603  0.90472835  0.04981628    -0.22500
C2709       C  0.70111155  0.58535597  0.12800618    -0.05400
C2710       C  0.67429034  0.55983576  0.14974331     0.00500
C2711       C  0.66670237  0.56874104  0.18454523    -0.08000
C2712       C  0.68645038  0.60344229  0.19648991    -0.05400
C2713       C  0.71315649  0.62911782  0.17470356     0.00500
C2714       C  0.72099742  0.62009899  0.14004179    -0.07900
C2715       C  0.75018755  0.64689255  0.11607224     0.62400
H2716       H  0.70583425  0.57786040  0.10114955     0.13100
H2717       H  0.68146020  0.61090252  0.22324472     0.13100
C2718       C  0.63759316  0.54183409  0.20859645     0.62700
F2719       F  0.75486561  0.63197065  0.08458088    -0.22500
F2720       F  0.78142654  0.66241768  0.13520867    -0.19800
F2721       F  0.74215487  0.67214032  0.10567300    -0.19500
F2722       F  0.64431836  0.51514836  0.21657690    -0.19500
F2723       F  0.60587262  0.52822240  0.19053523    -0.19900
F2724       F  0.63469588  0.55611922  0.24144128    -0.22500
loop_ 
_geom_bond_atom_site_label_1 
_geom_bond_atom_site_label_2 
_geom_bond_distance 
_geom_bond_site_symmetry_2 
_ccdc_geom_bond_type 
C1            C2   1.415       .  A
C1            C6   1.409       .  A
C1          C651   1.490       .  S
C2            C3   1.409       .  A
C2            H7   1.082       .  S
C3          C685   1.393       .  A
C3          C220   1.467       .  S
C4            C5   1.389       .  A
C4          C684   1.392   1_545  A
C4            H8   1.086       .  S
C5          C687   1.399   1_545  A
C5          C667   1.469       .  S
C6          C686   1.400       .  A
C6            H9   1.084       .  S
C10          C11   1.423       .  A
C10          C15   1.408       .  A
C10         C638   1.494       .  S
C11          C12   1.415       .  A
C11          H16   1.083       .  S
C12          C13   1.402       .  A
C12          C82   1.491       .  S
C13          C14   1.389       .  A
C13          H17   1.085       .  S
C14          C15   1.396       .  A
C14         C670   1.472       .  S
C15          H18   1.084       .  S
C19          C20   1.412       .  A
C19          C24   1.421       .  A
C19         C606   1.501       .  S
C20        C1383   1.401   1_455  A
C20          H25   1.083       .  S
C21          C22   1.387       .  A
C21        C1382   1.402       .  A
C21         C622   1.471       .  S
C22        C1385   1.390       .  A
C22          H26   1.086       .  S
C23          C24   1.411       .  A
C23        C1384   1.392       .  A
C23         C205   1.470       .  S
C24          H27   1.083       .  S
C28          C29   1.408       .  A
C28          C33   1.418       .  A
C28        C1271   1.489   1_545  S
C29          C30   1.396       .  A
C29          H34   1.084       .  S
C30          C31   1.389       .  A
C30         C619   1.469       .  S
C31          C32   1.400       .  A
C31          H35   1.085       .  S
C32          C33   1.412       .  A
C32          C81   1.483       .  S
C33          H36   1.083       .  S
C37        C1400   1.405   1_455  A
C37        C1404   1.420   1_455  A
C37         C555   1.490       .  S
C38          C39   1.389       .  A
C38        C1399   1.407       .  A
C38        H1405   1.084       .  S
C39          C40   1.384       .  A
C39         C571   1.462       .  S
C40          C41   1.398       .  A
C40          H44   1.085       .  S
C41          C42   1.417       .  A
C41          C79   1.487       .  S
C42        C1399   1.423       .  A
C42          H45   1.079       .  S
H43        C1400   1.083   1_455  S
C46          C47   1.421       .  A
C46          C51   1.408       .  A
C46         C542   1.496       .  S
C47          C48   1.408       .  A
C47          H52   1.083       .  S
C48          C49   1.388       .  A
C48         C219   1.463       .  S
C49          C50   1.385       .  A
C49          H53   1.086       .  S
C50          C51   1.397       .  A
C50         C574   1.461       .  S
C51          H54   1.082       .  S
C55          C56   1.418       .  A
C55          C60   1.417       .  A
C55         C603   1.505       .  S
C56          C57   1.424       .  A
C56         C558   1.490       .  S
C57          C58   1.421       .  A
C57         C654   1.500       .  S
C58          C59   1.421       .  A
C58         C587   1.507       .  S
C59          C60   1.423       .  A
C59         C539   1.492       .  S
C60         C635   1.498       .  S
O61          C77   1.271       .  A
O61         Zn67   1.996       .  S
C62         C115   1.471       .  S
C62          O78   1.272       .  A
C62          O75   1.277       .  A
O63          C76   1.276       .  A
O63         Cd70   2.095       .  S
O64          C82   1.278       .  A
O64         Cd73   2.115       .  S
O65          C79   1.274       .  A
O65         Cd69   2.095       .  S
O66          C77   1.274       .  A
O66         Cd69   2.084       .  S
Zn67         O78   1.995       .  S
Zn67         O80   2.000       .  S
Zn67         O72   1.921       .  S
O68          C79   1.277       .  A
O68         Cd73   2.055       .  S
Cd69         O71   2.050       .  S
Cd69         O72   2.015       .  S
Cd70         O74   2.097       .  S
Cd70         O83   2.055       .  S
Cd70         O72   2.010       .  S
O71          C81   1.276       .  A
O72         Cd73   2.013       .  S
Cd73         O75   2.102       .  S
O74          C81   1.276       .  A
C76          C95   1.470       .  S
C76          O80   1.272       .  A
C77         C131   1.464       .  S
C82          O83   1.277       .  A
C84          C85   1.419       .  A
C84          C89   1.404       .  A
C84         C507   1.486       .  S
C85          C86   1.414       .  A
C85          H90   1.083       .  S
C86          C87   1.396       .  A
C86         C228   1.475       .  S
C87          C88   1.390       .  A
C87          H91   1.086       .  S
C88          C89   1.396       .  A
C88         C523   1.467       .  S
C89          H92   1.084       .  S
C93          C94   1.415       .  A
C93          C98   1.407       .  A
C93         C491   1.490       .  S
C94          C95   1.408       .  A
C94          H99   1.083       .  S
C95          C96   1.396       .  A
C96          C97   1.393       .  A
C96         H100   1.085       .  S
C97          C98   1.400       .  A
C97         C526   1.470       .  S
C98         H101   1.084       .  S
C102        C103   1.418       .  A
C102        C107   1.407       .  A
C102        C462   1.491       .  S
C103        C104   1.413       .  A
C103        H108   1.082       .  S
C104        C105   1.393       .  A
C104        C242   1.468       .  S
C105        C106   1.387       .  A
C105        H109   1.086       .  S
C106        C107   1.396       .  A
C106        C475   1.465       .  S
C107        H110   1.084       .  S
C111        C112   1.407       .  A
C111        C116   1.420       .  A
C111        C443   1.495       .  S
C112        C113   1.397       .  A
C112        H117   1.083       .  S
C113        C114   1.390       .  A
C113        C478   1.466       .  S
C114        C115   1.393       .  A
C114        H118   1.086       .  S
C115        C116   1.410       .  A
C116        H119   1.083       .  S
C120        C121   1.423       .  A
C120        C125   1.406       .  A
C120        C411   1.493       .  S
C121        C122   1.415       .  A
C121        H126   1.083       .  S
C122        C123   1.394       .  A
C122        C243   1.476       .  S
C123        C124   1.389       .  A
C123        H127   1.086       .  S
C124        C125   1.394       .  A
C124        C427   1.467       .  S
C125        H128   1.084       .  S
C129        C130   1.419       .  A
C129        C134   1.407       .  A
C129        C398   1.495       .  S
C130        C131   1.405       .  A
C130        H135   1.083       .  S
C131        C132   1.392       .  A
C132        C133   1.391       .  A
C132        H136   1.086       .  S
C133        C134   1.397       .  A
C133        C430   1.466       .  S
C134       H1499   1.082       .  S
H137       C1496   1.082   1_455  S
C138        C139   1.427       .  A
C138       C1505   1.422       .  A
C138        C446   1.511       .  S
C139       C2183   1.433       .  A
C139        C510   1.509       .  S
C140        C141   1.431   1_655  A
C140       C2182   1.434   1_545  A
C140       C1757   1.507       .  S
C141        C142   1.422       .  A
C141        C459   1.512       .  S
C142        C824   1.422   1_545  A
C142        C494   1.505       .  S
C143       C1500   1.423   1_455  A
C143        C823   1.421       .  A
C143        C414   1.503       .  S
C144        C145   1.426       .  A
C144        C149   1.408       .  A
C144        C363   1.500       .  S
C145        C146   1.422       .  A
C145        H150   1.082       .  S
C146        C147   1.401       .  A
C146        C248   1.495       .  S
C147        C148   1.387       .  A
C147        H151   1.085       .  S
C148        C149   1.395       .  A
C148        C379   1.472       .  S
C149        H152   1.084       .  S
C153        C154   1.409       .  A
C153        C158   1.420       .  A
C153        C347   1.492       .  S
C154        C836   1.399   1_545  A
C154        H159   1.083       .  S
C155        C156   1.391       .  A
C155        C835   1.400       .  A
C155        C382   1.473       .  S
C156        C838   1.400       .  A
C156        H160   1.085       .  S
C157        C158   1.412       .  A
C157        C837   1.400   1_545  A
C157        C225   1.485       .  S
C158        H161   1.083       .  S
C162        C163   1.422       .  A
C162        C167   1.409       .  A
C162        C996   1.493       .  S
C163        C164   1.417       .  A
C163        H168   1.083       .  S
C164        C165   1.401       .  A
C164        C245   1.491       .  S
C165        C166   1.388       .  A
C165        H169   1.085       .  S
C166        C167   1.397       .  A
C166        C331   1.476       .  S
C167        H170   1.084       .  S
C171        C172   1.420       .  A
C171       C1538   1.413       .  A
C171        C299   1.497       .  S
C172        C173   1.410       .  A
C172        H177   1.083       .  S
C173       C1536   1.401       .  A
C173       C1586   1.488       .  S
C174        C175   1.388       .  A
C174       C1535   1.401   1_455  A
C174        H178   1.084       .  S
C175        C176   1.398   1_455  A
C175        C334   1.476       .  S
C176       C1533   1.411       .  A
C176        H179   1.083       .  S
C180        C181   1.420       .  A
C180        C185   1.413       .  A
C180        C267   1.500       .  S
C181        C182   1.405       .  A
C181        H186   1.083       .  S
C182        C183   1.397       .  A
C182        C222   1.480       .  S
C183        C184   1.388       .  A
C183        H187   1.085       .  S
C184        C185   1.401       .  A
C184        C286   1.474       .  S
C185        H188   1.082       .  S
C189        C190   1.408       .  A
C189        C194   1.426       .  A
C189       C1613   1.498   1_455  S
C190        C191   1.393       .  A
C190        H195   1.084       .  S
C191        C192   1.386       .  A
C191        C283   1.474       .  S
C192        C193   1.405       .  A
C192        H196   1.084       .  S
C193        C194   1.421       .  A
C193        C247   1.499       .  S
C194        H197   1.082       .  S
C198        C199   1.431       .  A
C198        C203   1.428       .  A
C198        C302   1.497       .  S
C199        C200   1.427       .  A
C199        C366   1.517       .  S
C200        C201   1.424       .  A
C200        C270   1.499       .  S
C201        C202   1.421       .  A
C201        C318   1.502       .  S
C202        C203   1.423       .  A
C202        C350   1.504       .  S
C203        C254   1.513       .  S
O204        C901   1.273       .  A
O204       Zn210   2.011   1_565  S
C205        O221   1.273       .  A
C205        O218   1.276       .  A
O206        C219   1.276       .  A
O206       Cd213   2.086   1_554  S
O207        C225   1.275       .  A
O207      Cd1578   2.098       .  S
O208        C222   1.275       .  A
O208       Cd212   2.084   1_545  S
O209        C220   1.274       .  A
O209       Cd893   2.081   1_554  S
Zn210       O221   2.008       .  S
Zn210      O2266   2.000   1_445  S
Zn210       O215   1.918       .  S
O211        C222   1.275       .  A
O211       Cd216   2.044       .  S
Cd212       O890   2.079   1_556  S
Cd212       O895   2.026       .  S
Cd212       O215   2.001   1_566  S
Cd213       O217   2.108       .  S
Cd213       O226   2.048       .  S
Cd213      O2258   2.013   1_556  S
O214        C224   1.274   1_455  A
O214       Cd893   2.036       .  S
O215       Cd216   2.011   1_554  S
O215      Cd2256   2.012   1_444  S
Cd216       O218   2.095   1_556  S
Cd216      O1569   2.100   1_455  S
O217       C1586   1.277       .  A
C219        O223   1.272       .  A
C220        O885   1.273       .  A
O223      Zn2253   1.995       .  S
C224       C1535   1.487       .  S
C224       O1579   1.276       .  A
C225        O907   1.275   1_545  A
O226        C906   1.274       .  A
O227        C243   1.273       .  A
O227       Zn233   1.999       .  S
C228        O244   1.272       .  A
C228        O241   1.277       .  A
O229        C242   1.273       .  A
O229       Cd236   2.084       .  S
O230        C248   1.279       .  A
O230       Cd239   2.069       .  S
O231        C245   1.278       .  A
O231       Cd235   2.057       .  S
O232        C243   1.278       .  A
O232       Cd235   2.113       .  S
Zn233       O244   2.001       .  S
Zn233       O246   2.007       .  S
Zn233       O238   1.923       .  S
O234        C245   1.278       .  A
O234       Cd239   2.114       .  S
Cd235       O237   2.135       .  S
Cd235       O238   2.028       .  S
Cd236       O240   2.044       .  S
Cd236       O249   2.112       .  S
Cd236       O238   2.015       .  S
O237        C247   1.280       .  A
O238       Cd239   2.023       .  S
Cd239       O241   2.110       .  S
O240        C247   1.275       .  A
C242        O246   1.273       .  A
C248        O249   1.276       .  A
C250        C251   1.405       .  A
C250        C255   1.412       .  A
C250        H257   1.085       .  S
C251        C252   1.415       .  A
C251       C1551   1.498       .  S
C252        C253   1.414       .  A
C252        C259   1.517       .  S
C253        C254   1.410       .  A
C253        H258   1.082       .  S
C254        C255   1.423       .  A
C255        C256   1.510       .  S
C256        F260   1.383       .  S
C256        F261   1.384       .  S
C256        F262   1.369       .  S
C259        F263   1.384       .  S
C259        F264   1.382       .  S
C259        F265   1.384       .  S
C266        C267   1.401       .  A
C266        C271   1.398       .  A
C266        H273   1.083       .  S
C267        C268   1.423       .  A
C268        C269   1.411       .  A
C268        C275   1.515       .  S
C269        C270   1.404       .  A
C269        H274   1.083       .  S
C270        C271   1.426       .  A
C271        C272   1.516       .  S
C272        F276   1.385       .  S
C272        F277   1.367       .  S
C272        F278   1.383       .  S
C275        F279   1.383       .  S
C275        F280   1.382       .  S
C275        F281   1.384       .  S
C282        C283   1.403       .  A
C282        C287   1.405       .  A
C282        H289   1.083       .  S
C283        C284   1.413       .  A
C284        C285   1.404       .  A
C284        C291   1.518       .  S
C285        C286   1.403       .  A
C285        H290   1.083       .  S
C286        C287   1.414       .  A
C287        C288   1.517       .  S
C288        F292   1.384       .  S
C288        F293   1.384       .  S
C288        F294   1.381       .  S
C291        F295   1.383       .  S
C291        F296   1.383       .  S
C291        F297   1.385       .  S
C298        C299   1.400       .  A
C298        C303   1.405       .  A
C298        H305   1.084       .  S
C299        C300   1.422       .  A
C300        C301   1.407       .  A
C300        C307   1.513       .  S
C301        C302   1.401       .  A
C301        H306   1.084       .  S
C302        C303   1.428       .  A
C303        C304   1.517       .  S
C304        F308   1.384       .  S
C304        F309   1.373       .  S
C304        F310   1.382       .  S
C307        F311   1.382       .  S
C307        F313   1.384       .  S
C307       F1674   1.382       .  S
F312       C1669   1.382       .  S
C314        C315   1.403       .  A
C314        C319   1.412       .  A
C314        H321   1.084       .  S
C315        C316   1.424       .  A
C315        C843   1.500   1_545  S
C316        C317   1.409       .  A
C316        C323   1.517       .  S
C317        C318   1.401       .  A
C317        H322   1.080       .  S
C318        C319   1.425       .  A
C319        C320   1.520       .  S
C320        F324   1.383       .  S
C320        F325   1.383       .  S
C320        F326   1.380       .  S
C323        F328   1.383   1_545  S
C323        F329   1.383       .  S
C323       F1008   1.384       .  S
F327       C1004   1.384       .  S
C330        C331   1.403       .  A
C330        C335   1.403       .  A
C330        H337   1.084       .  S
C331        C332   1.414       .  A
C332        C333   1.405       .  A
C332        C339   1.517       .  S
C333        C334   1.404       .  A
C333        H338   1.083       .  S
C334        C335   1.414       .  A
C335        C336   1.517       .  S
C336        F340   1.384       .  S
C336        F341   1.383       .  S
C336        F342   1.380       .  S
C339        F344   1.383       .  S
C339        F345   1.385       .  S
C339       F1024   1.381       .  S
F343       C1020   1.382       .  S
C346        C347   1.395       .  A
C346        C351   1.401       .  A
C346        H353   1.085       .  S
C347        C348   1.421       .  A
C348        C349   1.415       .  A
C348        C355   1.516       .  S
C349        C350   1.406       .  A
C349        H354   1.082       .  S
C350        C351   1.427       .  A
C351        C352   1.513       .  S
C352        F356   1.384       .  S
C352        F357   1.383       .  S
C352        F358   1.367       .  S
C355        F359   1.380       .  S
C355        F360   1.384       .  S
C355        F361   1.385       .  S
C362        C363   1.404       .  A
C362        C367   1.413       .  A
C362        H369   1.085       .  S
C363        C364   1.416       .  A
C364        C365   1.415       .  A
C364        C371   1.516       .  S
C365        C366   1.410       .  A
C365        H370   1.083       .  S
C366        C367   1.427       .  A
C367        C368   1.511       .  S
C368        F372   1.384       .  S
C368        F373   1.369       .  S
C368        F374   1.383       .  S
C371        F375   1.383       .  S
C371        F376   1.382       .  S
C371        F377   1.384       .  S
C378        C379   1.401       .  A
C378        C383   1.404       .  A
C378        H385   1.083       .  S
C379        C380   1.414       .  A
C380        C381   1.405       .  A
C380        C387   1.518       .  S
C381        C382   1.403       .  A
C381        H386   1.083       .  S
C382        C383   1.414       .  A
C383        C384   1.517       .  S
C384        F388   1.384       .  S
C384        F390   1.382       .  S
C384       F1070   1.383       .  S
C387        F391   1.383       .  S
C387        F392   1.383       .  S
C387        F393   1.385       .  S
F389       C1065   1.383       .  S
C394        C395   1.405       .  A
C394        C399   1.409       .  A
C394       H1763   1.080       .  S
C395        C396   1.430       .  A
C395       C1502   1.510       .  S
C396        C397   1.403       .  A
C396        C403   1.515       .  S
C397        C398   1.396       .  A
C397        H402   1.081       .  S
C398        C399   1.422       .  A
C399        C400   1.518       .  S
C400        F404   1.383       .  S
C400        F405   1.383       .  S
C400       F1768   1.383       .  S
H401       C1756   1.080       .  S
C403        F409   1.385       .  S
C403       F1088   1.372   1_545  S
C403       F1770   1.370       .  S
F406       C1762   1.383       .  S
F407       C1084   1.373       .  S
F408       C1765   1.370       .  S
C410        C411   1.400       .  A
C410        C415   1.410       .  A
C410        H417   1.083       .  S
C411        C412   1.423       .  A
C412        C413   1.406       .  A
C412        C419   1.516       .  S
C413        C414   1.399       .  A
C413        H418   1.078       .  S
C414        C415   1.426       .  A
C415       C1778   1.518       .  S
C416       C1777   1.517       .  S
C416        F420   1.385       .  S
C416        F421   1.373       .  S
C416        F422   1.376       .  S
C419        F423   1.383       .  S
C419        F424   1.382       .  S
C419        F425   1.384       .  S
C426        C427   1.403       .  A
C426        C431   1.403       .  A
C426        H433   1.084       .  S
C427       C1790   1.412       .  A
C428        C429   1.399       .  A
C428       C1789   1.411       .  A
C428        C435   1.518       .  S
C429        C430   1.402       .  A
C429        H434   1.084       .  S
C430       C1793   1.411       .  A
C431       C1792   1.412       .  A
C431        C432   1.518       .  S
C432        F436   1.385       .  S
C432        F437   1.383       .  S
C432        F438   1.382       .  S
C435        F439   1.382       .  S
C435        F440   1.383       .  S
C435        F441   1.385       .  S
C442        C443   1.395       .  A
C442        C447   1.405       .  A
C442        H449   1.082       .  S
C443        C444   1.421       .  A
C444        C445   1.409       .  A
C444        C451   1.515       .  S
C445        C446   1.402       .  A
C445        H450   1.076       .  S
C446        C447   1.429       .  A
C447        C448   1.510       .  S
C448        F454   1.367       .  S
C448       F1814   1.385       .  S
C448       F1815   1.372       .  S
C451        F455   1.382       .  S
C451        F456   1.383       .  S
C451        F457   1.385       .  S
F452       C1810   1.385       .  S
F453       C1810   1.372   1_455  S
C458        C459   1.410       .  A
C458        C463   1.409       .  A
C458        H465   1.074       .  S
C459        C460   1.423       .  A
C460        C461   1.409       .  A
C460        C467   1.508       .  S
C461        C462   1.404       .  A
C461        H466   1.085       .  S
C462        C463   1.413       .  A
C463        C464   1.519       .  S
C464        F468   1.385       .  S
C464        F469   1.381       .  S
C464        F470   1.383       .  S
C467        F472   1.367       .  S
C467        F473   1.384       .  S
C467       F1833   1.383       .  S
F471       C1829   1.383       .  S
C474        C475   1.400       .  A
C474        C479   1.402       .  A
C474        H481   1.083       .  S
C475        C476   1.413       .  A
C476        C477   1.402       .  A
C476        C483   1.518       .  S
C477        C478   1.400       .  A
C477        H482   1.083       .  S
C478        C479   1.414       .  A
C479        C480   1.517       .  S
C480        F484   1.384       .  S
C480        F485   1.381       .  S
C480        F486   1.383       .  S
C483        F487   1.383       .  S
C483        F488   1.383       .  S
C483        F489   1.384       .  S
C490        C491   1.395       .  A
C490        C495   1.402       .  A
C490        H497   1.085       .  S
C491        C492   1.422       .  A
C492        C493   1.412       .  A
C492        C499   1.517       .  S
C493        C494   1.404       .  A
C493        H498   1.081       .  S
C494        C495   1.428       .  A
C495        C496   1.512       .  S
C496        F500   1.384       .  S
C496        F501   1.383       .  S
C496        F502   1.368       .  S
C499        F503   1.382       .  S
C499        F504   1.383       .  S
C499        F505   1.384       .  S
C506        C507   1.394       .  A
C506       C1192   1.405       .  A
C506       H1194   1.085       .  S
C507        C508   1.417       .  A
C508        C509   1.413       .  A
C508        C515   1.517       .  S
C509        C510   1.409       .  A
C509        H514   1.080       .  S
C510       C1192   1.431       .  A
C511       C1187   1.407       .  A
C511       C1191   1.432       .  A
C511        C512   1.517   1_565  S
C512        F516   1.383   1_545  S
C512        F517   1.383       .  S
C512        F518   1.372       .  S
H513       C1187   1.085       .  S
C515        F519   1.382       .  S
C515        F520   1.383       .  S
C515        F521   1.385       .  S
C522        C527   1.404       .  A
C522       C1204   1.401       .  A
C522        H529   1.083       .  S
C523        C524   1.413       .  A
C523       C1203   1.400       .  A
C524       C1206   1.403       .  A
C524        C531   1.518       .  S
C525        C526   1.401       .  A
C525       C1205   1.403       .  A
C525        H530   1.084       .  S
C526        C527   1.414   1_545  A
C527        C528   1.516       .  S
C528        F532   1.385       .  S
C528        F533   1.382       .  S
C528        F534   1.381       .  S
C531        F535   1.383       .  S
C531        F536   1.383       .  S
C531        F537   1.384       .  S
C538        C539   1.402       .  A
C538        C543   1.411       .  A
C538        H545   1.084       .  S
C539        C540   1.424       .  A
C540        C541   1.401       .  A
C540        C547   1.518       .  S
C541        C542   1.399       .  A
C541        H546   1.084       .  S
C542        C543   1.427       .  A
C543        C544   1.518       .  S
C544        F548   1.384       .  S
C544        F549   1.382       .  S
C544        F550   1.383       .  S
C547        F551   1.373       .  S
C547        F552   1.383       .  S
C547        F553   1.384       .  S
C554        C555   1.411       .  A
C554        C559   1.408       .  A
C554        H561   1.085       .  S
C555        C556   1.417       .  A
C556        C557   1.404       .  A
C556        C563   1.521       .  S
C557        C558   1.404       .  A
C557        H562   1.080       .  S
C558        C559   1.414       .  A
C559        C560   1.514       .  S
C560        F564   1.383       .  S
C560        F565   1.377       .  S
C560        F566   1.384       .  S
C563        F567   1.381       .  S
C563        F568   1.383       .  S
C563        F569   1.385       .  S
C570        C571   1.402       .  A
C570        C575   1.399       .  A
C570        H577   1.084       .  S
C571        C572   1.411       .  A
C572        C573   1.400       .  A
C572        C579   1.517       .  S
C573        C574   1.402       .  A
C573        H578   1.084       .  S
C574        C575   1.411       .  A
C575        C576   1.517       .  S
C576        F580   1.381       .  S
C576        F581   1.385       .  S
C576        F582   1.383       .  S
C579        F583   1.383       .  S
C579        F584   1.383       .  S
C579        F585   1.385       .  S
C586        C587   1.406       .  A
C586        C591   1.410       .  A
C586        H593   1.081       .  S
C587        C588   1.428       .  A
C588        C589   1.407       .  A
C588        C595   1.515       .  S
C589        C590   1.398       .  A
C589        H594   1.085       .  S
C590        C591   1.420       .  A
C590        C709   1.492       .  S
C591        C592   1.517       .  S
C592        F596   1.383       .  S
C592        F597   1.382       .  S
C592       F1279   1.383       .  S
C595        F599   1.383       .  S
C595        F600   1.371       .  S
C595        F601   1.384       .  S
F598       C1273   1.383       .  S
C602        C603   1.403       .  A
C602        C607   1.410       .  A
C602        H609   1.082       .  S
C603        C604   1.427       .  A
C604        C605   1.407       .  A
C604        C611   1.516       .  S
C605        C606   1.400       .  A
C605        H610   1.084       .  S
C606        C607   1.423       .  A
C607        C608   1.515       .  S
C608        F612   1.384       .  S
C608        F613   1.382       .  S
C608        F614   1.382       .  S
C611        F615   1.372       .  S
C611        F616   1.384       .  S
C611        F617   1.383       .  S
C618        C619   1.399       .  A
C618        C623   1.401       .  A
C618        H625   1.084       .  S
C619        C620   1.413       .  A
C620        C621   1.406       .  A
C620        C627   1.517       .  S
C621        C622   1.402       .  A
C621        H626   1.083       .  S
C622        C623   1.416       .  A
C623        C624   1.518       .  S
C624        F628   1.385       .  S
C624        F630   1.382       .  S
C624       F1991   1.380       .  S
C627        F631   1.382       .  S
C627        F632   1.383       .  S
C627        F633   1.385       .  S
F629       C1986   1.381   1_455  S
C634        C635   1.402       .  A
C634        C639   1.411       .  A
C634        H641   1.084       .  S
C635        C636   1.426       .  A
C636        C637   1.405       .  A
C636        C643   1.518       .  S
C637        C638   1.399       .  A
C637        H642   1.085       .  S
C638        C639   1.424       .  A
C639        C640   1.516       .  S
C640        F644   1.384       .  S
C640        F645   1.383       .  S
C640        F646   1.382       .  S
C643        F647   1.384       .  S
C643        F648   1.373       .  S
C643        F649   1.383       .  S
C650        C651   1.405       .  A
C650        C655   1.409       .  A
C650        H657   1.085       .  S
C651        C652   1.415       .  A
C652        C653   1.409       .  A
C652        C659   1.520       .  S
C653        C654   1.408       .  A
C653        H658   1.080       .  S
C654        C655   1.419       .  A
C655        C656   1.513       .  S
C656        F660   1.384       .  S
C656        F661   1.375       .  S
C656        F662   1.383       .  S
C659        F663   1.383       .  S
C659        F664   1.381       .  S
C659        F665   1.385       .  S
C666        C667   1.402       .  A
C666        C671   1.405       .  A
C666        H673   1.083       .  S
C667        C668   1.414       .  A
C668        C669   1.402       .  A
C668        C675   1.519       .  S
C669        C670   1.401       .  A
C669        H674   1.083       .  S
C670        C671   1.414       .  A
C671        C672   1.517       .  S
C672        F676   1.385       .  S
C672        F677   1.383       .  S
C672        F678   1.382       .  S
C675        F679   1.383       .  S
C675        F680   1.383       .  S
C675        F681   1.384       .  S
C682        C683   1.415       .  A
C682        C687   1.409       .  A
C682       C1332   1.491       .  S
C683        C684   1.410       .  A
C683        H688   1.082       .  S
C684        C901   1.466       .  S
C685        C686   1.390       .  A
C685        H689   1.086       .  S
C686       C1348   1.472       .  S
C687        H690   1.084       .  S
C691        C692   1.421       .  A
C691        C696   1.408       .  A
C691       C1319   1.492       .  S
C692        C693   1.412       .  A
C692        H697   1.083       .  S
C693        C694   1.401       .  A
C693        C763   1.488       .  S
C694        C695   1.390       .  A
C694        H698   1.085       .  S
C695        C696   1.397       .  A
C695       C1351   1.475       .  S
C696        H699   1.083       .  S
C700        C701   1.411       .  A
C700        C705   1.419       .  A
C700       C1287   1.498       .  S
C701       C2064   1.401   1_455  A
C701        H706   1.082       .  S
C702       C2063   1.400       .  A
C702        C703   1.387       .  A
C702       C1303   1.467       .  S
C703       C2066   1.390       .  A
C703        H707   1.086       .  S
C704       C2065   1.389   1_455  A
C704        C705   1.408       .  A
C704        C886   1.463       .  S
C705        H708   1.083       .  S
C709        C710   1.406       .  A
C709        C714   1.422       .  A
C710        C711   1.393       .  A
C710        H715   1.084       .  S
C711        C712   1.386       .  A
C711       C1300   1.466       .  S
C712        C713   1.400       .  A
C712        H716   1.085       .  S
C713        C714   1.416       .  A
C713        C762   1.486       .  S
C714        H717   1.083       .  S
C718       C2081   1.408   1_455  A
C718       C2085   1.419   1_455  A
C718       C1236   1.493       .  S
C719       C2080   1.408       .  A
C719        C720   1.392       .  A
C719       H2086   1.084       .  S
C720        C721   1.385       .  A
C720       C1252   1.466       .  S
C721        C722   1.399       .  A
C721        H725   1.085       .  S
C722        C723   1.414       .  A
C722        C760   1.482       .  S
C723       C2080   1.419       .  A
C723        H726   1.081       .  S
H724       C2081   1.084   1_455  S
C727        C728   1.421       .  A
C727        C732   1.409       .  A
C727       C1223   1.498       .  S
C728        C729   1.412       .  A
C728        H733   1.083       .  S
C729        C730   1.392       .  A
C729        C900   1.470       .  S
C730        C731   1.387       .  A
C730        H734   1.086       .  S
C731        C732   1.398       .  A
C731       C1255   1.465       .  S
C732        H735   1.083       .  S
C736        C737   1.420       .  A
C736        C741   1.420       .  A
C736       C1284   1.503       .  S
C737        C738   1.423       .  A
C737       C1239   1.494       .  S
C738        C739   1.421       .  A
C738       C1335   1.499       .  S
C739        C740   1.418       .  A
C739       C1268   1.502       .  S
C740        C741   1.422       .  A
C740       C1220   1.499       .  S
C741       C1316   1.496       .  S
O742        C758   1.269       .  A
O742       Zn748   1.984       .  S
C743        C796   1.467       .  S
C743        O759   1.269       .  A
C743        O756   1.276       .  A
O744        C757   1.275       .  A
O744       Cd751   2.090       .  S
O745        C763   1.278       .  A
O745       Cd754   2.109       .  S
O746        C760   1.275       .  A
O746       Cd750   2.091       .  S
O747        C758   1.274       .  A
O747       Cd750   2.086       .  S
Zn748       O759   1.980       .  S
Zn748       O761   1.979       .  S
Zn748       O753   1.912       .  S
O749        C760   1.276       .  A
O749       Cd754   2.045       .  S
Cd750       O752   2.053       .  S
Cd750       O753   2.006       .  S
Cd751       O755   2.102       .  S
Cd751       O764   2.052       .  S
Cd751       O753   2.011       .  S
O752        C762   1.277       .  A
O753       Cd754   2.010       .  S
Cd754       O756   2.099       .  S
O755        C762   1.276       .  A
C757        C776   1.463       .  S
C757        O761   1.271       .  A
C758        C812   1.463       .  S
C763        O764   1.276       .  A
C765        C766   1.418       .  A
C765        C770   1.405       .  A
C765       C1188   1.488       .  S
C766        C767   1.414       .  A
C766        H771   1.083       .  S
C767        C768   1.396       .  A
C767        C909   1.474       .  S
C768        C769   1.390       .  A
C768        H772   1.086       .  S
C769        C770   1.397       .  A
C769       C1204   1.469       .  S
C770        H773   1.084       .  S
C774        C775   1.413       .  A
C774        C779   1.407       .  A
C774       C1172   1.483       .  S
C775        C776   1.404       .  A
C775        H780   1.084       .  S
C776        C777   1.394       .  A
C777        C778   1.390       .  A
C777        H781   1.086       .  S
C778        C779   1.400       .  A
C778       C1207   1.468       .  S
C779        H782   1.084       .  S
C783        C784   1.423       .  A
C783        C788   1.408       .  A
C783       C1143   1.497       .  S
C784        C785   1.416       .  A
C784        H789   1.081       .  S
C785        C786   1.391       .  A
C785        C923   1.471       .  S
C786        C787   1.384       .  A
C786        H790   1.086       .  S
C787        C788   1.394       .  A
C787       C1156   1.464       .  S
C788        H791   1.084       .  S
C792        C793   1.409       .  A
C792        C797   1.420       .  A
C792       C1124   1.496       .  S
C793        C794   1.399       .  A
C793        H798   1.083       .  S
C794        C795   1.389       .  A
C794       C1159   1.464       .  S
C795        C796   1.390       .  A
C795        H799   1.086       .  S
C796        C797   1.407       .  A
C797        H800   1.083       .  S
C801        C802   1.418       .  A
C801        C806   1.405       .  A
C801       C1092   1.486       .  S
C802        C803   1.412       .  A
C802        H807   1.083       .  S
C803        C804   1.395       .  A
C803        C924   1.470       .  S
C804        C805   1.388       .  A
C804        H808   1.086       .  S
C805        C806   1.394       .  A
C805       C1108   1.465       .  S
C806        H809   1.084       .  S
C810        C811   1.416       .  A
C810        C815   1.408       .  A
C810       C1079   1.493       .  S
C811        C812   1.402       .  A
C811        H816   1.083       .  S
C812        C813   1.394       .  A
C813        C814   1.392       .  A
C813        H817   1.085       .  S
C814        C815   1.399       .  A
C814       C1111   1.468       .  S
C815       H2180   1.083       .  S
H818       C2177   1.083   1_455  S
C819        C820   1.430       .  A
C819       C2186   1.425       .  A
C819       C1127   1.516       .  S
C820       C1502   1.434   1_565  A
C820       C1191   1.512       .  S
C821       C1501   1.434       .  A
C821        C822   1.429   1_655  A
C821       C2438   1.507       .  S
C822        C823   1.421       .  A
C822       C1140   1.511       .  S
C823       C1175   1.499       .  S
C824       C2181   1.423   1_455  A
C824       C1095   1.501       .  S
C825        C826   1.427       .  A
C825        C830   1.410       .  A
C825       C1044   1.500       .  S
C826        C827   1.422       .  A
C826        H831   1.082       .  S
C827        C828   1.402       .  A
C827        C929   1.497       .  S
C828        C829   1.384       .  A
C828        H832   1.085       .  S
C829        C830   1.397       .  A
C829       C1060   1.474       .  S
C830        H833   1.084       .  S
C834        C835   1.408       .  A
C834        C839   1.415       .  A
C834       C1028   1.488       .  S
C835        H840   1.084       .  S
C836        C837   1.387       .  A
C836       C1063   1.473       .  S
C837        H841   1.085       .  S
C838        C839   1.408       .  A
C838        C906   1.482       .  S
C839        H842   1.083       .  S
C843        C844   1.426       .  A
C843        C848   1.411       .  A
C844        C845   1.419       .  A
C844        H849   1.083       .  S
C845        C846   1.400       .  A
C845        C926   1.492       .  S
C846        C847   1.385       .  A
C846        H850   1.085       .  S
C847        C848   1.396       .  A
C847       C1012   1.472       .  S
C848        H851   1.084       .  S
C852        C853   1.418       .  A
C852       C2219   1.411       .  A
C852        C980   1.490       .  S
C853        C854   1.408       .  A
C853        H858   1.083       .  S
C854       C2217   1.401       .  A
C854       C2267   1.484       .  S
C855       C2216   1.401   1_455  A
C855        C856   1.386       .  A
C855        H859   1.085       .  S
C856        C857   1.397   1_455  A
C856       C1015   1.473       .  S
C857       C2214   1.412       .  A
C857        H860   1.082       .  S
C861        C862   1.421       .  A
C861        C866   1.412       .  A
C861        C948   1.501       .  S
C862        C863   1.407       .  A
C862        H867   1.082       .  S
C863        C864   1.396       .  A
C863        C903   1.480       .  S
C864        C865   1.386       .  A
C864        H868   1.085       .  S
C865        C866   1.399       .  A
C865        C967   1.468       .  S
C866        H869   1.081       .  S
C870        C871   1.408       .  A
C870        C875   1.428       .  A
C870       C2294   1.499   1_455  S
C871        C872   1.392       .  A
C871        H876   1.085       .  S
C872        C873   1.381       .  A
C872        C964   1.467       .  S
C873        C874   1.399       .  A
C873        H877   1.085       .  S
C874        C875   1.423       .  A
C874        C928   1.493       .  S
C875        H878   1.082       .  S
C879        C880   1.428       .  A
C879        C884   1.425       .  A
C879        C983   1.490       .  S
C880        C881   1.426       .  A
C880       C1047   1.516       .  S
C881        C882   1.425       .  A
C881        C951   1.504       .  S
C882        C883   1.423       .  A
C882        C999   1.500       .  S
C883        C884   1.421       .  A
C883       C1031   1.500       .  S
C884        C935   1.515       .  S
O885       Zn891   2.008       .  S
C886        O902   1.272       .  A
C886        O899   1.274       .  A
O887        C900   1.275       .  A
O887       Cd894   2.090   1_554  S
O888        C906   1.275       .  A
O888      Cd2259   2.088       .  S
O889        C903   1.275       .  A
O889       Cd893   2.087       .  S
O890        C901   1.273       .  A
Zn891       O902   2.003       .  S
Zn891      O1585   1.999   1_455  S
Zn891       O896   1.921       .  S
O892        C903   1.274       .  A
O892       Cd897   2.037       .  S
Cd893       O896   2.002   1_556  S
Cd894       O898   2.105       .  S
Cd894       O907   2.046       .  S
Cd894      O1577   2.011   1_566  S
O895        C905   1.272   1_455  A
O896      Cd1575   2.011   1_454  S
O896       Cd897   2.004   1_554  S
Cd897      O2250   2.090   1_455  S
Cd897       O899   2.080   1_556  S
O898       C2267   1.276       .  A
C900        O904   1.274       .  A
O904      Zn1572   2.008   1_565  S
C905       C2216   1.486       .  S
C905       O2260   1.276       .  A
O908        C924   1.272       .  A
O908       Zn914   1.991       .  S
C909        O925   1.273       .  A
C909        O922   1.276       .  A
O910        C923   1.275       .  A
O910       Cd917   2.099       .  S
O911        C929   1.277       .  A
O911       Cd920   2.054       .  S
O912        C926   1.277       .  A
O912       Cd916   2.053       .  S
O913        C924   1.275       .  A
O913       Cd916   2.097       .  S
Zn914       O925   2.006       .  S
Zn914       O927   2.001       .  S
Zn914       O919   1.917       .  S
O915        C926   1.278       .  A
O915       Cd920   2.120       .  S
Cd916       O918   2.117       .  S
Cd916       O919   2.024       .  S
Cd917       O921   2.054       .  S
Cd917       O930   2.128       .  S
Cd917       O919   2.021       .  S
O918        C928   1.277       .  A
O919       Cd920   2.019       .  S
Cd920       O922   2.101       .  S
O921        C928   1.278       .  A
C923        O927   1.273       .  A
C929        O930   1.279       .  A
C931        C932   1.405       .  A
C931        C936   1.410       .  A
C931        H938   1.085       .  S
C932        C933   1.417       .  A
C932       C2232   1.500       .  S
C933        C934   1.415       .  A
C933        C940   1.517       .  S
C934        C935   1.410       .  A
C934        H939   1.082       .  S
C935        C936   1.424       .  A
C936        C937   1.509       .  S
C937        F941   1.383       .  S
C937        F942   1.384       .  S
C937        F943   1.367       .  S
C940        F944   1.383       .  S
C940        F945   1.382       .  S
C940        F946   1.385       .  S
C947        C948   1.399       .  A
C947        C952   1.398       .  A
C947        H954   1.083       .  S
C948        C949   1.424       .  A
C949        C950   1.411       .  A
C949        C956   1.515       .  S
C950        C951   1.404       .  A
C950        H955   1.083       .  S
C951        C952   1.428       .  A
C952        C953   1.513       .  S
C953        F957   1.384       .  S
C953        F958   1.361       .  S
C953        F959   1.384       .  S
C956        F960   1.383       .  S
C956        F961   1.382       .  S
C956        F962   1.384       .  S
C963        C964   1.398       .  A
C963        C968   1.401       .  A
C963        H970   1.084       .  S
C964        C965   1.415       .  A
C965        C966   1.404       .  A
C965        C972   1.518       .  S
C966        C967   1.401       .  A
C966        H971   1.083       .  S
C967        C968   1.416       .  A
C968        C969   1.519       .  S
C969        F973   1.385       .  S
C969        F974   1.382       .  S
C969        F975   1.382       .  S
C972        F976   1.383       .  S
C972        F977   1.382       .  S
C972        F978   1.384       .  S
C979        C980   1.400       .  A
C979        C984   1.402       .  A
C979        H986   1.084       .  S
C980        C981   1.420       .  A
C981        C982   1.404       .  A
C981        C988   1.514       .  S
C982        C983   1.401       .  A
C982        H987   1.084       .  S
C983        C984   1.426       .  A
C984        C985   1.519       .  S
C985        F989   1.384       .  S
C985        F990   1.375       .  S
C985        F991   1.382       .  S
C988        F992   1.383       .  S
C988       F2355   1.382       .  S
C988        F994   1.384       .  S
F993       C2350   1.382       .  S
C995        C996   1.402       .  A
C995       C1000   1.410       .  A
C995       H1002   1.085       .  S
C996        C997   1.422       .  A
C997        C998   1.409       .  A
C997       C1004   1.517       .  S
C998        C999   1.402       .  A
C998       H1003   1.081       .  S
C999       C1000   1.425       .  A
C1000      C1001   1.520       .  S
C1001      F1005   1.383       .  S
C1001      F1006   1.383       .  S
C1001      F1007   1.380       .  S
C1004      F1009   1.382       .  S
C1004      F1010   1.383       .  S
C1011      C1012   1.400       .  A
C1011      C1016   1.402       .  A
C1011      H1018   1.084       .  S
C1012      C1013   1.414       .  A
C1013      C1014   1.406       .  A
C1013      C1020   1.517       .  S
C1014      C1015   1.403       .  A
C1014      H1019   1.083       .  S
C1015      C1016   1.415       .  A
C1016      C1017   1.518       .  S
C1017      F1021   1.384       .  S
C1017      F1022   1.383       .  S
C1017      F1023   1.381       .  S
C1020      F1025   1.383       .  S
C1020      F1026   1.385       .  S
C1027      C1028   1.395       .  A
C1027      C1032   1.399       .  A
C1027      H1034   1.085       .  S
C1028      C1029   1.420       .  A
C1029      C1030   1.412       .  A
C1029      C1036   1.515       .  S
C1030      C1031   1.405       .  A
C1030      H1035   1.084       .  S
C1031      C1032   1.427       .  A
C1032      C1033   1.514       .  S
C1033      F1037   1.384       .  S
C1033      F1038   1.384       .  S
C1033      F1039   1.368       .  S
C1036      F1040   1.382       .  S
C1036      F1041   1.382       .  S
C1036      F1042   1.384       .  S
C1043      C1044   1.405       .  A
C1043      C1048   1.414       .  A
C1043      H1050   1.085       .  S
C1044      C1045   1.416       .  A
C1045      C1046   1.414       .  A
C1045      C1052   1.517       .  S
C1046      C1047   1.410       .  A
C1046      H1051   1.083       .  S
C1047      C1048   1.425       .  A
C1048      C1049   1.512       .  S
C1049      F1053   1.383       .  S
C1049      F1054   1.372       .  S
C1049      F1055   1.383       .  S
C1052      F1056   1.383       .  S
C1052      F1057   1.382       .  S
C1052      F1058   1.385       .  S
C1059      C1060   1.402       .  A
C1059      C1064   1.406       .  A
C1059      H1066   1.083       .  S
C1060      C1061   1.415       .  A
C1061      C1062   1.405       .  A
C1061      C1068   1.518       .  S
C1062      C1063   1.401       .  A
C1062      H1067   1.083       .  S
C1063      C1064   1.414       .  A
C1064      C1065   1.518       .  S
C1065      F1069   1.384       .  S
C1065      F1071   1.382       .  S
C1068      F1072   1.383       .  S
C1068      F1073   1.383       .  S
C1068      F1074   1.384       .  S
C1075      C1076   1.404       .  A
C1075      C1080   1.407       .  A
C1075      H2444   1.080       .  S
C1076      C1077   1.429       .  A
C1076      C2183   1.507       .  S
C1077      C1078   1.404       .  A
C1077      C1084   1.516       .  S
C1078      C1079   1.398       .  A
C1078      H1083   1.081       .  S
C1079      C1080   1.421       .  A
C1080      C1081   1.518       .  S
C1081      F1085   1.384       .  S
C1081      F1086   1.382       .  S
C1081      F2449   1.383       .  S
H1082      C2437   1.080       .  S
C1084      F2451   1.372       .  S
C1084      F1090   1.385       .  S
F1087      C2443   1.383       .  S
F1089      C2446   1.370       .  S
C1091      C1092   1.397       .  A
C1091      C1096   1.408       .  A
C1091      H1098   1.083       .  S
C1092      C1093   1.419       .  A
C1093      C1094   1.406       .  A
C1093      C1100   1.516       .  S
C1094      C1095   1.401       .  A
C1094      H1099   1.080       .  S
C1095      C1096   1.427       .  A
C1096      C2459   1.517       .  S
C1097      C2458   1.517       .  S
C1097      F1101   1.385       .  S
C1097      F1102   1.373       .  S
C1097      F1103   1.377   1_565  S
C1100      F1104   1.382       .  S
C1100      F1105   1.383       .  S
C1100      F1106   1.384       .  S
C1107      C1108   1.403       .  A
C1107      C1112   1.403       .  A
C1107      H1114   1.084       .  S
C1108      C2471   1.411       .  A
C1109      C2470   1.412       .  A
C1109      C1110   1.401       .  A
C1109      C1116   1.519       .  S
C1110      C1111   1.402       .  A
C1110      H1115   1.084       .  S
C1111      C2474   1.412       .  A
C1112      C2473   1.412       .  A
C1112      C1113   1.517       .  S
C1113      F1117   1.385       .  S
C1113      F1118   1.383       .  S
C1113      F1119   1.382       .  S
C1116      F1120   1.383       .  S
C1116      F1121   1.383       .  S
C1116      F1122   1.385       .  S
C1123      C1124   1.395       .  A
C1123      C1128   1.403       .  A
C1123      H1130   1.082       .  S
C1124      C1125   1.422       .  A
C1125      C1126   1.412       .  A
C1125      C1132   1.517       .  S
C1126      C1127   1.406       .  A
C1126      H1131   1.076       .  S
C1127      C1128   1.428       .  A
C1128      C1129   1.508       .  S
C1129      F2495   1.385       .  S
C1129      F2496   1.373       .  S
C1129      F1135   1.367       .  S
C1132      F1136   1.382       .  S
C1132      F1137   1.382       .  S
C1132      F1138   1.384       .  S
F1133      C2491   1.385       .  S
F1134      C2491   1.374   1_455  S
C1139      C1140   1.408       .  A
C1139      C1144   1.410       .  A
C1139      H1146   1.076       .  S
C1140      C1141   1.422       .  A
C1141      C1142   1.410       .  A
C1141      C1148   1.509       .  S
C1142      C1143   1.407       .  A
C1142      H1147   1.085       .  S
C1143      C1144   1.416       .  A
C1144      C1145   1.519       .  S
C1145      F1149   1.385       .  S
C1145      F1150   1.381       .  S
C1145      F1151   1.383       .  S
C1148      F2514   1.383       .  S
C1148      F1153   1.368       .  S
C1148      F1154   1.384       .  S
F1152      C2510   1.383       .  S
C1155      C1156   1.399       .  A
C1155      C1160   1.401       .  A
C1155      H1162   1.084       .  S
C1156      C1157   1.415       .  A
C1157      C1158   1.401       .  A
C1157      C1164   1.519       .  S
C1158      C1159   1.399       .  A
C1158      H1163   1.084       .  S
C1159      C1160   1.414       .  A
C1160      C1161   1.518       .  S
C1161      F1165   1.385       .  S
C1161      F1166   1.382       .  S
C1161      F1167   1.382       .  S
C1164      F1168   1.382       .  S
C1164      F1169   1.383       .  S
C1164      F1170   1.385       .  S
C1171      C1172   1.395       .  A
C1171      C1176   1.400       .  A
C1171      H1178   1.085       .  S
C1172      C1173   1.419       .  A
C1173      C1174   1.409       .  A
C1173      C1180   1.517       .  S
C1174      C1175   1.404       .  A
C1174      H1179   1.080       .  S
C1175      C1176   1.427       .  A
C1176      C1177   1.513       .  S
C1177      F1181   1.384       .  S
C1177      F1182   1.384       .  S
C1177      F1183   1.371       .  S
C1180      F1184   1.383       .  S
C1180      F1185   1.383       .  S
C1180      F1186   1.385       .  S
C1187      C1188   1.395       .  A
C1188      C1189   1.416       .  A
C1189      C1190   1.413       .  A
C1189      C1196   1.517       .  S
C1190      C1191   1.409       .  A
C1190      H1195   1.080       .  S
C1192      C1193   1.517       .  S
C1193      F1197   1.383       .  S
C1193      F1198   1.383       .  S
C1193      F1199   1.372       .  S
C1196      F1200   1.382       .  S
C1196      F1201   1.383       .  S
C1196      F1202   1.385       .  S
C1203      C1208   1.403       .  A
C1203      H1210   1.083       .  S
C1204      C1205   1.413   1_565  A
C1205      C1212   1.517       .  S
C1206      C1207   1.401       .  A
C1206      H1211   1.083       .  S
C1207      C1208   1.414       .  A
C1208      C1209   1.517       .  S
C1209      F1213   1.385       .  S
C1209      F1214   1.383       .  S
C1209      F1215   1.381       .  S
C1212      F1216   1.383       .  S
C1212      F1217   1.385       .  S
C1212      F1218   1.383       .  S
C1219      C1220   1.401       .  A
C1219      C1224   1.411       .  A
C1219      H1226   1.083       .  S
C1220      C1221   1.427       .  A
C1221      C1222   1.405       .  A
C1221      C1228   1.517       .  S
C1222      C1223   1.400       .  A
C1222      H1227   1.084       .  S
C1223      C1224   1.425       .  A
C1224      C1225   1.517       .  S
C1225      F1229   1.384       .  S
C1225      F1230   1.382       .  S
C1225      F1231   1.383       .  S
C1228      F1232   1.373       .  S
C1228      F1233   1.383       .  S
C1228      F1234   1.384       .  S
C1235      C1236   1.409       .  A
C1235      C1240   1.408       .  A
C1235      H1242   1.085       .  S
C1236      C1237   1.418       .  A
C1237      C1238   1.407       .  A
C1237      C1244   1.521       .  S
C1238      C1239   1.405       .  A
C1238      H1243   1.081       .  S
C1239      C1240   1.415       .  A
C1240      C1241   1.514       .  S
C1241      F1245   1.383       .  S
C1241      F1246   1.377       .  S
C1241      F1247   1.383       .  S
C1244      F1248   1.381       .  S
C1244      F1249   1.383       .  S
C1244      F1250   1.385       .  S
C1251      C1252   1.402       .  A
C1251      C1256   1.401       .  A
C1251      H1258   1.084       .  S
C1252      C1253   1.411       .  A
C1253      C1254   1.402       .  A
C1253      C1260   1.516       .  S
C1254      C1255   1.402       .  A
C1254      H1259   1.084       .  S
C1255      C1256   1.412       .  A
C1256      C1257   1.517       .  S
C1257      F1261   1.381       .  S
C1257      F1262   1.385       .  S
C1257      F1263   1.383       .  S
C1260      F1264   1.383       .  S
C1260      F1265   1.383       .  S
C1260      F1266   1.385       .  S
C1267      C1268   1.405       .  A
C1267      C1272   1.409       .  A
C1267      H1274   1.082       .  S
C1268      C1269   1.427       .  A
C1269      C1270   1.405       .  A
C1269      C1276   1.516       .  S
C1270      C1271   1.398       .  A
C1270      H1275   1.085       .  S
C1271      C1272   1.419       .  A
C1272      C1273   1.517   1_565  S
C1273      F1277   1.383   1_545  S
C1273      F1278   1.382   1_545  S
C1276      F1280   1.383       .  S
C1276      F1281   1.371       .  S
C1276      F1282   1.383       .  S
C1283      C1284   1.404       .  A
C1283      C1288   1.409       .  A
C1283      H1290   1.082       .  S
C1284      C1285   1.427       .  A
C1285      C1286   1.405       .  A
C1285      C1292   1.516       .  S
C1286      C1287   1.400       .  A
C1286      H1291   1.084       .  S
C1287      C1288   1.422       .  A
C1288      C1289   1.516       .  S
C1289      F1293   1.384       .  S
C1289      F1294   1.382       .  S
C1289      F1295   1.383       .  S
C1292      F1296   1.371       .  S
C1292      F1297   1.384       .  S
C1292      F1298   1.383       .  S
C1299      C1300   1.399       .  A
C1299      C1304   1.400       .  A
C1299      H1306   1.084       .  S
C1300      C1301   1.413       .  A
C1301      C1302   1.404       .  A
C1301      C1308   1.517       .  S
C1302      C1303   1.402       .  A
C1302      H1307   1.083       .  S
C1303      C1304   1.415       .  A
C1304      C1305   1.518       .  S
C1305      F1309   1.385       .  S
C1305      F2672   1.381       .  S
C1305      F1311   1.383       .  S
C1308      F1312   1.383       .  S
C1308      F1313   1.383       .  S
C1308      F1314   1.384       .  S
F1310      C2667   1.380   1_455  S
C1315      C1316   1.403       .  A
C1315      C1320   1.410       .  A
C1315      H1322   1.084       .  S
C1316      C1317   1.427       .  A
C1317      C1318   1.404       .  A
C1317      C1324   1.519       .  S
C1318      C1319   1.398       .  A
C1318      H1323   1.085       .  S
C1319      C1320   1.423       .  A
C1320      C1321   1.516       .  S
C1321      F1325   1.384       .  S
C1321      F1326   1.383       .  S
C1321      F1327   1.382       .  S
C1324      F1328   1.384       .  S
C1324      F1329   1.373       .  S
C1324      F1330   1.383       .  S
C1331      C1332   1.407       .  A
C1331      C1336   1.410       .  A
C1331      H1338   1.085       .  S
C1332      C1333   1.415       .  A
C1333      C1334   1.408       .  A
C1333      C1340   1.520       .  S
C1334      C1335   1.407       .  A
C1334      H1339   1.080       .  S
C1335      C1336   1.419       .  A
C1336      C1337   1.514       .  S
C1337      F1341   1.383       .  S
C1337      F1342   1.376       .  S
C1337      F1343   1.383       .  S
C1340      F1344   1.383       .  S
C1340      F1345   1.381       .  S
C1340      F1346   1.385       .  S
C1347      C1348   1.403       .  A
C1347      C1352   1.406       .  A
C1347      H1354   1.083       .  S
C1348      C1349   1.413       .  A
C1349      C1350   1.402       .  A
C1349      C1356   1.519       .  S
C1350      C1351   1.403       .  A
C1350      H1355   1.084       .  S
C1351      C1352   1.414       .  A
C1352      C1353   1.517       .  S
C1353      F1357   1.385       .  S
C1353      F1358   1.383       .  S
C1353      F1359   1.381       .  S
C1356      F1360   1.382       .  S
C1356      F1361   1.383       .  S
C1356      F1362   1.385       .  S
C1363      C1364   1.415       .  A
C1363      C1368   1.408       .  A
C1363      C2013   1.489       .  S
C1364      C1365   1.410       .  A
C1364      H1369   1.082       .  S
C1365      C2047   1.394       .  A
C1365      C1582   1.468       .  S
C1366      C2046   1.393   1_545  A
C1366      C1367   1.390       .  A
C1366      H1370   1.086       .  S
C1367      C2049   1.400   1_545  A
C1367      C2029   1.471       .  S
C1368      C2048   1.399       .  A
C1368      H1371   1.084       .  S
C1372      C1373   1.421       .  A
C1372      C1377   1.408       .  A
C1372      C2000   1.492       .  S
C1373      C1374   1.413       .  A
C1373      H1378   1.083       .  S
C1374      C1375   1.403       .  A
C1374      C1444   1.489       .  S
C1375      C1376   1.390       .  A
C1375      H1379   1.085       .  S
C1376      C1377   1.397       .  A
C1376      C2032   1.475       .  S
C1377      H1380   1.084       .  S
C1381      C1382   1.413       .  A
C1381      C1386   1.420       .  A
C1381      C1968   1.500       .  S
C1382      H1387   1.083       .  S
C1383      C1384   1.388   1_655  A
C1383      C1984   1.471       .  S
C1384      H1388   1.086   1_455  S
C1385      C1386   1.410       .  A
C1385      C1567   1.467       .  S
C1386      H1389   1.083       .  S
C1390      C1391   1.408       .  A
C1390      C1395   1.420       .  A
C1390      C2633   1.492   1_545  S
C1391      C1392   1.396       .  A
C1391      H1396   1.084       .  S
C1392      C1393   1.388       .  A
C1392      C1981   1.469       .  S
C1393      C1394   1.400       .  A
C1393      H1397   1.085       .  S
C1394      C1395   1.414       .  A
C1394      C1443   1.486       .  S
C1395      H1398   1.083       .  S
C1399      C1917   1.496       .  S
C1400      C1401   1.389       .  A
C1401      C1402   1.386       .  A
C1401      C1933   1.464       .  S
C1402      C1403   1.398       .  A
C1402      H1406   1.085       .  S
C1403      C1404   1.416       .  A
C1403      C1441   1.485       .  S
C1404      H1407   1.081       .  S
C1408      C1409   1.420       .  A
C1408      C1413   1.407       .  A
C1408      C1904   1.495       .  S
C1409      C1410   1.407       .  A
C1409      H1414   1.083       .  S
C1410      C1411   1.388       .  A
C1410      C1581   1.464       .  S
C1411      C1412   1.388       .  A
C1411      H1415   1.086       .  S
C1412      C1413   1.398       .  A
C1412      C1936   1.466       .  S
C1413      H1416   1.082       .  S
C1417      C1418   1.419       .  A
C1417      C1422   1.419       .  A
C1417      C1965   1.505       .  S
C1418      C1419   1.423       .  A
C1418      C1920   1.492       .  S
C1419      C1420   1.421       .  A
C1419      C2016   1.500       .  S
C1420      C1421   1.420       .  A
C1420      C1949   1.506       .  S
C1421      C1422   1.423       .  A
C1421      C1901   1.494       .  S
C1422      C1997   1.497       .  S
O1423      C1439   1.270       .  A
O1423     Zn1429   1.987       .  S
C1424      C1477   1.471       .  S
C1424      O1440   1.271       .  A
C1424      O1437   1.277       .  A
O1425      C1438   1.276       .  A
O1425     Cd1432   2.093       .  S
O1426      C1444   1.279       .  A
O1426     Cd1435   2.114       .  S
O1427      C1441   1.274       .  A
O1427     Cd1431   2.090       .  S
O1428      C1439   1.274       .  A
O1428     Cd1431   2.082       .  S
Zn1429     O1440   1.991       .  S
Zn1429     O1442   1.996       .  S
Zn1429     O1434   1.916       .  S
O1430      C1441   1.277       .  A
O1430     Cd1435   2.053       .  S
Cd1431     O1433   2.054       .  S
Cd1431     O1434   2.011       .  S
Cd1432     O1436   2.100       .  S
Cd1432     O1445   2.051       .  S
Cd1432     O1434   2.011       .  S
O1433      C1443   1.277       .  A
O1434     Cd1435   2.011       .  S
Cd1435     O1437   2.105       .  S
O1436      C1443   1.276       .  A
C1438      C1457   1.469       .  S
C1438      O1442   1.272       .  A
C1439      C1493   1.462       .  S
C1444      O1445   1.276       .  A
C1446      C1447   1.419       .  A
C1446      C1451   1.404       .  A
C1446      C1869   1.487       .  S
C1447      C1448   1.414       .  A
C1447      H1452   1.083       .  S
C1448      C1449   1.396       .  A
C1448      C1590   1.475       .  S
C1449      C1450   1.391       .  A
C1449      H1453   1.086       .  S
C1450      C1451   1.396       .  A
C1450      C1885   1.469       .  S
C1451      H1454   1.084       .  S
C1455      C1456   1.414       .  A
C1455      C1460   1.406       .  A
C1455      C1853   1.487       .  S
C1456      C1457   1.408       .  A
C1456      H1461   1.083       .  S
C1457      C1458   1.396       .  A
C1458      C1459   1.393       .  A
C1458      H1462   1.085       .  S
C1459      C1460   1.398       .  A
C1459      C1888   1.469       .  S
C1460      H1463   1.084       .  S
C1464      C1465   1.418       .  A
C1464      C1469   1.405       .  A
C1464      C1824   1.490       .  S
C1465      C1466   1.413       .  A
C1465      H1470   1.082       .  S
C1466      C1467   1.393       .  A
C1466      C1604   1.469       .  S
C1467      C1468   1.388       .  A
C1467      H1471   1.086       .  S
C1468      C1469   1.394       .  A
C1468      C1837   1.465       .  S
C1469      H1472   1.085       .  S
C1473      C1474   1.408       .  A
C1473      C1478   1.421       .  A
C1473      C1805   1.497       .  S
C1474      C1475   1.398       .  A
C1474      H1479   1.083       .  S
C1475      C1476   1.391       .  A
C1475      C1840   1.467       .  S
C1476      C1477   1.392       .  A
C1476      H1480   1.086       .  S
C1477      C1478   1.409       .  A
C1478      H1481   1.083       .  S
C1482      C1483   1.423       .  A
C1482      C1487   1.406       .  A
C1482      C1773   1.496       .  S
C1483      C1484   1.416       .  A
C1483      H1488   1.083       .  S
C1484      C1485   1.394       .  A
C1484      C1605   1.477       .  S
C1485      C1486   1.388       .  A
C1485      H1489   1.086       .  S
C1486      C1487   1.394       .  A
C1486      C1789   1.466       .  S
C1487      H1490   1.083       .  S
C1491      C1492   1.416       .  A
C1491      C1496   1.408       .  A
C1491      C1760   1.493       .  S
C1492      C1493   1.402       .  A
C1492      H1497   1.083       .  S
C1493      C1494   1.392       .  A
C1494      C1495   1.392       .  A
C1494      H1498   1.086       .  S
C1495      C1496   1.399       .  A
C1495      C1792   1.469   1_655  S
C1500      C1501   1.428       .  A
C1500      C1808   1.514       .  S
C1501      C1872   1.509       .  S
C1502      C1503   1.430       .  A
C1503      C1504   1.421       .  A
C1503      C1821   1.510       .  S
C1504      C2186   1.421   1_545  A
C1504      C1856   1.504       .  S
C1505      C2185   1.422       .  A
C1505      C1776   1.507       .  S
C1506      C1507   1.424       .  A
C1506      C1511   1.408       .  A
C1506      C1725   1.498       .  S
C1507      C1508   1.421       .  A
C1507      H1512   1.082       .  S
C1508      C1509   1.402       .  A
C1508      C1610   1.494       .  S
C1509      C1510   1.388       .  A
C1509      H1513   1.085       .  S
C1510      C1511   1.395       .  A
C1510      C1741   1.473       .  S
C1511      H1514   1.084       .  S
C1515      C1516   1.411       .  A
C1515      C1520   1.420       .  A
C1515      C1709   1.495       .  S
C1516      C2198   1.402   1_545  A
C1516      H1521   1.084       .  S
C1517      C2197   1.399       .  A
C1517      C1518   1.390       .  A
C1517      C1744   1.472       .  S
C1518      C2200   1.400       .  A
C1518      H1522   1.085       .  S
C1519      C2199   1.400   1_545  A
C1519      C1520   1.410       .  A
C1519      C1587   1.486       .  S
C1520      H1523   1.083       .  S
C1524      C1525   1.420       .  A
C1524      C1529   1.409       .  A
C1524      C2358   1.491       .  S
C1525      C1526   1.415       .  A
C1525      H1530   1.083       .  S
C1526      C1527   1.401       .  A
C1526      C1607   1.489       .  S
C1527      C1528   1.390       .  A
C1527      H1531   1.085       .  S
C1528      C1529   1.398       .  A
C1528      C1693   1.479       .  S
C1529      H1532   1.083       .  S
C1533      C1534   1.421       .  A
C1533      C1661   1.496       .  S
C1534      C1535   1.411       .  A
C1534      H1539   1.083       .  S
C1536      C1537   1.390       .  A
C1536      H1540   1.084       .  S
C1537      C1538   1.401       .  A
C1537      C1696   1.481       .  S
C1538      H1541   1.083       .  S
C1542      C1543   1.421       .  A
C1542      C1547   1.414       .  A
C1542      C1629   1.502       .  S
C1543      C1544   1.406       .  A
C1543      H1548   1.082       .  S
C1544      C1545   1.396       .  A
C1544      C1584   1.480       .  S
C1545      C1546   1.387       .  A
C1545      H1549   1.085       .  S
C1546      C1547   1.401       .  A
C1546      C1648   1.474       .  S
C1547      H1550   1.082       .  S
C1551      C1552   1.407       .  A
C1551      C1556   1.428       .  A
C1552      C1553   1.392       .  A
C1552      H1557   1.084       .  S
C1553      C1554   1.386       .  A
C1553      C1645   1.473       .  S
C1554      C1555   1.404       .  A
C1554      H1558   1.084       .  S
C1555      C1556   1.423       .  A
C1555      C1609   1.500       .  S
C1556      H1559   1.082       .  S
C1560      C1561   1.429       .  A
C1560      C1565   1.428       .  A
C1560      C1664   1.497       .  S
C1561      C1562   1.426       .  A
C1561      C1728   1.516       .  S
C1562      C1563   1.425       .  A
C1562      C1632   1.499       .  S
C1563      C1564   1.423       .  A
C1563      C1680   1.503       .  S
C1564      C1565   1.424       .  A
C1564      C1712   1.505       .  S
C1565      C1616   1.512       .  S
O1566      C2263   1.273       .  A
O1566     Zn1572   2.013   1_565  S
C1567      O1583   1.273       .  A
C1567      O1580   1.275       .  A
O1568      C1581   1.275       .  A
O1568     Cd1575   2.083   1_554  S
O1569      C1587   1.276       .  A
O1570      C1584   1.274       .  A
O1570     Cd1574   2.086   1_545  S
O1571      C1582   1.275       .  A
O1571     Cd2255   2.088   1_554  S
Zn1572     O1583   2.005       .  S
Zn1572     O1577   1.919       .  S
O1573      C1584   1.274       .  A
O1573     Cd1578   2.042       .  S
Cd1574     O2252   2.079   1_556  S
Cd1574     O2257   2.024       .  S
Cd1574     O1577   2.003   1_566  S
Cd1575     O1579   2.105       .  S
Cd1575     O1588   2.047       .  S
O1576      C1586   1.273       .  A
O1576     Cd2255   2.036       .  S
O1577     Cd1578   2.010   1_554  S
Cd1578     O1580   2.089   1_556  S
C1581      O1585   1.273       .  A
C1582      O2247   1.272       .  A
C1587      O2269   1.274   1_545  A
O1588      C2268   1.274       .  A
O1589      C1605   1.273       .  A
O1589     Zn1595   2.001       .  S
C1590      O1606   1.272       .  A
C1590      O1603   1.277       .  A
O1591      C1604   1.274       .  A
O1591     Cd1598   2.089       .  S
O1592      C1610   1.278       .  A
O1592     Cd1601   2.066       .  S
O1593      C1607   1.278       .  A
O1593     Cd1597   2.056       .  S
O1594      C1605   1.277       .  A
O1594     Cd1597   2.111       .  S
Zn1595     O1606   2.004       .  S
Zn1595     O1608   2.006       .  S
Zn1595     O1600   1.923       .  S
O1596      C1607   1.278       .  A
O1596     Cd1601   2.110       .  S
Cd1597     O1599   2.134       .  S
Cd1597     O1600   2.029       .  S
Cd1598     O1602   2.052       .  S
Cd1598     O1611   2.116       .  S
Cd1598     O1600   2.014       .  S
O1599      C1609   1.279       .  A
O1600     Cd1601   2.023       .  S
Cd1601     O1603   2.107       .  S
O1602      C1609   1.277       .  A
C1604      O1608   1.273       .  A
C1610      O1611   1.278       .  A
C1612      C1613   1.405       .  A
C1612      C1617   1.411       .  A
C1612      H1619   1.085   1_655  S
C1613      C1614   1.416       .  A
C1614      C1615   1.415       .  A
C1614      C1621   1.517       .  S
C1615      C1616   1.410       .  A
C1615      H1620   1.083       .  S
C1616      C1617   1.423       .  A
C1617      C1618   1.510       .  S
C1618      F1622   1.383       .  S
C1618      F1623   1.384       .  S
C1618      F1624   1.368       .  S
C1621      F1625   1.383       .  S
C1621      F1626   1.382       .  S
C1621      F1627   1.384       .  S
C1628      C1629   1.402       .  A
C1628      C1633   1.400       .  A
C1628      H1635   1.083       .  S
C1629      C1630   1.423       .  A
C1630      C1631   1.410       .  A
C1630      C1637   1.515       .  S
C1631      C1632   1.403       .  A
C1631      H1636   1.083       .  S
C1632      C1633   1.426       .  A
C1633      C1634   1.517       .  S
C1634      F1638   1.385       .  S
C1634      F1639   1.368       .  S
C1634      F1640   1.383       .  S
C1637      F1641   1.383       .  S
C1637      F1642   1.382       .  S
C1637      F1643   1.384       .  S
C1644      C1645   1.403       .  A
C1644      C1649   1.405       .  A
C1644      H1651   1.083       .  S
C1645      C1646   1.413       .  A
C1646      C1647   1.403       .  A
C1646      C1653   1.518       .  S
C1647      C1648   1.403       .  A
C1647      H1652   1.083       .  S
C1648      C1649   1.414       .  A
C1649      C1650   1.517       .  S
C1650      F1654   1.385       .  S
C1650      F1655   1.383       .  S
C1650      F1656   1.381       .  S
C1653      F1657   1.383       .  S
C1653      F1658   1.383       .  S
C1653      F1659   1.384       .  S
C1660      C1661   1.400       .  A
C1660      C1665   1.405       .  A
C1660      H1667   1.084       .  S
C1661      C1662   1.422       .  A
C1662      C1663   1.407       .  A
C1662      C1669   1.514       .  S
C1663      C1664   1.402       .  A
C1663      H1668   1.084       .  S
C1664      C1665   1.428       .  A
C1665      C1666   1.517       .  S
C1666      F1670   1.384       .  S
C1666      F1671   1.374       .  S
C1666      F1672   1.382       .  S
C1669      F1673   1.382       .  S
C1669      F1675   1.384       .  S
C1676      C1677   1.403       .  A
C1676      C1681   1.411       .  A
C1676      H1683   1.084       .  S
C1677      C1678   1.424       .  A
C1677      C2205   1.500   1_545  S
C1678      C1679   1.411       .  A
C1678      C1685   1.517       .  S
C1679      C1680   1.402       .  A
C1679      H1684   1.082       .  S
C1680      C1681   1.425       .  A
C1681      C1682   1.520       .  S
C1682      F1686   1.383       .  S
C1682      F1687   1.383       .  S
C1682      F1688   1.380       .  S
C1685      F2370   1.384       .  S
C1685      F1690   1.382   1_545  S
C1685      F1691   1.383       .  S
F1689      C2366   1.384       .  S
C1692      C1693   1.403       .  A
C1692      C1697   1.403       .  A
C1692      H1699   1.084       .  S
C1693      C1694   1.414       .  A
C1694      C1695   1.406       .  A
C1694      C1701   1.517       .  S
C1695      C1696   1.407       .  A
C1695      H1700   1.083       .  S
C1696      C1697   1.415       .  A
C1697      C1698   1.516       .  S
C1698      F1702   1.385       .  S
C1698      F1703   1.383       .  S
C1698      F1704   1.379       .  S
C1701      F2386   1.381       .  S
C1701      F1706   1.383       .  S
C1701      F1707   1.385       .  S
F1705      C2382   1.382       .  S
C1708      C1709   1.397       .  A
C1708      C1713   1.402       .  A
C1708      H1715   1.085       .  S
C1709      C1710   1.423       .  A
C1710      C1711   1.414       .  A
C1710      C1717   1.516       .  S
C1711      C1712   1.405       .  A
C1711      H1716   1.084       .  S
C1712      C1713   1.427       .  A
C1713      C1714   1.513       .  S
C1714      F1718   1.384       .  S
C1714      F1719   1.383       .  S
C1714      F1720   1.367       .  S
C1717      F1721   1.383       .  S
C1717      F1722   1.381       .  S
C1717      F1723   1.384       .  S
C1724      C1725   1.403       .  A
C1724      C1729   1.412       .  A
C1724      H1731   1.085       .  S
C1725      C1726   1.415       .  A
C1726      C1727   1.415       .  A
C1726      C1733   1.517       .  S
C1727      C1728   1.411       .  A
C1727      H1732   1.083       .  S
C1728      C1729   1.427       .  A
C1729      C1730   1.511       .  S
C1730      F1734   1.384       .  S
C1730      F1735   1.370       .  S
C1730      F1736   1.383       .  S
C1733      F1737   1.383       .  S
C1733      F1738   1.382       .  S
C1733      F1739   1.384       .  S
C1740      C1741   1.401       .  A
C1740      C1745   1.404       .  A
C1740      H1747   1.083       .  S
C1741      C1742   1.414       .  A
C1742      C1743   1.405       .  A
C1742      C1749   1.518       .  S
C1743      C1744   1.402       .  A
C1743      H1748   1.083       .  S
C1744      C1745   1.414       .  A
C1745      C1746   1.518       .  S
C1746      F1750   1.384       .  S
C1746      F2432   1.383       .  S
C1746      F1752   1.382       .  S
C1749      F1753   1.383       .  S
C1749      F1754   1.383       .  S
C1749      F1755   1.385       .  S
F1751      C2427   1.383       .  S
C1756      C1757   1.405       .  A
C1756      C1761   1.409       .  A
C1757      C1758   1.430       .  A
C1758      C1759   1.402       .  A
C1758      C1765   1.516       .  S
C1759      C1760   1.396       .  A
C1759      H1764   1.082       .  S
C1760      C1761   1.421       .  A
C1761      C1762   1.517       .  S
C1762      F1766   1.384       .  S
C1762      F1767   1.383       .  S
C1765      F2450   1.373   1_545  S
C1765      F1771   1.385       .  S
F1769      C2446   1.375       .  S
C1772      C1773   1.400       .  A
C1772      C1777   1.412       .  A
C1772      H1779   1.083       .  S
C1773      C1774   1.424       .  A
C1774      C1775   1.408       .  A
C1774      C1781   1.518       .  S
C1775      C1776   1.399       .  A
C1775      H1780   1.077       .  S
C1776      C1777   1.427       .  A
C1778      F1782   1.385       .  S
C1778      F1783   1.373       .  S
C1778      F1784   1.376       .  S
C1781      F1785   1.383       .  S
C1781      F1786   1.383       .  S
C1781      F1787   1.384       .  S
C1788      C1789   1.404       .  A
C1788      C1793   1.403       .  A
C1788      H1795   1.084       .  S
C1790      C1791   1.400   1_455  A
C1790      C1797   1.519   1_455  S
C1791      C1792   1.404   1_655  A
C1791      H1796   1.084       .  S
C1793      C1794   1.517       .  S
C1794      F1798   1.385       .  S
C1794      F1799   1.383       .  S
C1794      F1800   1.383       .  S
C1797      F1801   1.382       .  S
C1797      F1802   1.383       .  S
C1797      F1803   1.385       .  S
C1804      C1805   1.395       .  A
C1804      C1809   1.405       .  A
C1804      H1811   1.082       .  S
C1805      C1806   1.422       .  A
C1806      C1807   1.410       .  A
C1806      C1813   1.515       .  S
C1807      C1808   1.404       .  A
C1807      H1812   1.075       .  S
C1808      C1809   1.428       .  A
C1809      C1810   1.509       .  S
C1810      F1816   1.368       .  S
C1813      F1817   1.382       .  S
C1813      F1818   1.383       .  S
C1813      F1819   1.385       .  S
C1820      C1821   1.410       .  A
C1820      C1825   1.409       .  A
C1820      H1827   1.076       .  S
C1821      C1822   1.421       .  A
C1822      C1823   1.409       .  A
C1822      C1829   1.509       .  S
C1823      C1824   1.405       .  A
C1823      H1828   1.085       .  S
C1824      C1825   1.413       .  A
C1825      C1826   1.519       .  S
C1826      F1830   1.385       .  S
C1826      F1831   1.382       .  S
C1826      F1832   1.383       .  S
C1829      F1834   1.369       .  S
C1829      F1835   1.384       .  S
C1836      C1837   1.400       .  A
C1836      C1841   1.402       .  A
C1836      H1843   1.083       .  S
C1837      C1838   1.413       .  A
C1838      C1839   1.401       .  A
C1838      C1845   1.518       .  S
C1839      C1840   1.401       .  A
C1839      H1844   1.084       .  S
C1840      C1841   1.414       .  A
C1841      C1842   1.516       .  S
C1842      F1846   1.385       .  S
C1842      F1847   1.380       .  S
C1842      F1848   1.383       .  S
C1845      F1849   1.383       .  S
C1845      F1850   1.383       .  S
C1845      F1851   1.385       .  S
C1852      C1853   1.394       .  A
C1852      C1857   1.402       .  A
C1852      H1859   1.085       .  S
C1853      C1854   1.420       .  A
C1854      C1855   1.411       .  A
C1854      C1861   1.517       .  S
C1855      C1856   1.404       .  A
C1855      H1860   1.081       .  S
C1856      C1857   1.428       .  A
C1857      C1858   1.512       .  S
C1858      F1862   1.384   1_545  S
C1858      F1863   1.383       .  S
C1858      F1864   1.368       .  S
C1861      F1865   1.383       .  S
C1861      F1866   1.382       .  S
C1861      F1867   1.384       .  S
C1868      C1869   1.394       .  A
C1868      C2554   1.405       .  A
C1868      H2556   1.085       .  S
C1869      C1870   1.416       .  A
C1870      C1871   1.413       .  A
C1870      C1877   1.516       .  S
C1871      C1872   1.409       .  A
C1871      H1876   1.080       .  S
C1872      C2554   1.431       .  A
C1873      C2549   1.406       .  A
C1873      C2553   1.431       .  A
C1873      C1874   1.517   1_565  S
C1874      F1878   1.384   1_545  S
C1874      F1879   1.383       .  S
C1874      F1880   1.372       .  S
H1875      C2549   1.085       .  S
C1877      F1881   1.382       .  S
C1877      F1882   1.384       .  S
C1877      F1883   1.385       .  S
C1884      C2566   1.400       .  A
C1884      C1889   1.403       .  A
C1884      H1891   1.083       .  S
C1885      C2565   1.401       .  A
C1885      C1886   1.414       .  A
C1886      C2568   1.403       .  A
C1886      C1893   1.518       .  S
C1887      C2567   1.403       .  A
C1887      C1888   1.400       .  A
C1887      H1892   1.083       .  S
C1888      C1889   1.414   1_545  A
C1889      C1890   1.517       .  S
C1890      F1894   1.385       .  S
C1890      F1895   1.382       .  S
C1890      F1896   1.382       .  S
C1893      F1897   1.382       .  S
C1893      F1898   1.383       .  S
C1893      F1899   1.385       .  S
C1900      C1901   1.402       .  A
C1900      C1905   1.411       .  A
C1900      H1907   1.084       .  S
C1901      C1902   1.425       .  A
C1902      C1903   1.400       .  A
C1902      C1909   1.517       .  S
C1903      C1904   1.399       .  A
C1903      H1908   1.084       .  S
C1904      C1905   1.425       .  A
C1905      C1906   1.518       .  S
C1906      F1910   1.384       .  S
C1906      F1911   1.382       .  S
C1906      F1912   1.383       .  S
C1909      F1913   1.372       .  S
C1909      F1914   1.383       .  S
C1909      F1915   1.384       .  S
C1916      C1917   1.413       .  A
C1916      C1921   1.409       .  A
C1916      H1923   1.085       .  S
C1917      C1918   1.419       .  A
C1918      C1919   1.405       .  A
C1918      C1925   1.520       .  S
C1919      C1920   1.403       .  A
C1919      H1924   1.080       .  S
C1920      C1921   1.414       .  A
C1921      C1922   1.515       .  S
C1922      F1926   1.383       .  S
C1922      F1927   1.378       .  S
C1922      F1928   1.383       .  S
C1925      F1929   1.381       .  S
C1925      F1930   1.383       .  S
C1925      F1931   1.385       .  S
C1932      C1933   1.403       .  A
C1932      C1937   1.398       .  A
C1932      H1939   1.084       .  S
C1933      C1934   1.410       .  A
C1934      C1935   1.400       .  A
C1934      C1941   1.519   1_655  S
C1935      C1936   1.405       .  A
C1935      H1940   1.084       .  S
C1936      C1937   1.412       .  A
C1937      C1938   1.517       .  S
C1938      F1942   1.380       .  S
C1938      F1943   1.385       .  S
C1938      F1944   1.383       .  S
C1941      F1945   1.382       .  S
C1941      F1946   1.383       .  S
C1941      F1947   1.385       .  S
C1948      C1949   1.404       .  A
C1948      C1953   1.408       .  A
C1948      H1955   1.082       .  S
C1949      C1950   1.428       .  A
C1950      C1951   1.407       .  A
C1950      C1957   1.514       .  S
C1951      C1952   1.398       .  A
C1951      H1956   1.085       .  S
C1952      C1953   1.420       .  A
C1952      C2071   1.491       .  S
C1953      C1954   1.517       .  S
C1954      F1958   1.382       .  S
C1954      F1959   1.383       .  S
C1954      F2641   1.383       .  S
C1957      F1961   1.383       .  S
C1957      F1962   1.371       .  S
C1957      F1963   1.384       .  S
F1960      C2635   1.383       .  S
C1964      C1965   1.403       .  A
C1964      C1969   1.409       .  A
C1964      H1971   1.082       .  S
C1965      C1966   1.427       .  A
C1966      C1967   1.407       .  A
C1966      C1973   1.515       .  S
C1967      C1968   1.401       .  A
C1967      H1972   1.084       .  S
C1968      C1969   1.422       .  A
C1969      C1970   1.515       .  S
C1970      F1974   1.384       .  S
C1970      F1975   1.381       .  S
C1970      F1976   1.383       .  S
C1973      F1977   1.371       .  S
C1973      F1978   1.383       .  S
C1973      F1979   1.384       .  S
C1980      C1981   1.399       .  A
C1980      C1985   1.401       .  A
C1980      H1987   1.084       .  S
C1981      C1982   1.413       .  A
C1982      C1983   1.406       .  A
C1982      C1989   1.517       .  S
C1983      C1984   1.403       .  A
C1983      H1988   1.083       .  S
C1984      C1985   1.415       .  A
C1985      C1986   1.518       .  S
C1986      F1990   1.385       .  S
C1986      F1992   1.382       .  S
C1989      F1993   1.383       .  S
C1989      F1994   1.383       .  S
C1989      F1995   1.385       .  S
C1996      C1997   1.402       .  A
C1996      C2001   1.411       .  A
C1996      H2003   1.084       .  S
C1997      C1998   1.426       .  A
C1998      C1999   1.405       .  A
C1998      C2005   1.518       .  S
C1999      C2000   1.399       .  A
C1999      H2004   1.085       .  S
C2000      C2001   1.424       .  A
C2001      C2002   1.516       .  S
C2002      F2006   1.384       .  S
C2002      F2007   1.383       .  S
C2002      F2008   1.381       .  S
C2005      F2009   1.384       .  S
C2005      F2010   1.372       .  S
C2005      F2011   1.383       .  S
C2012      C2013   1.406       .  A
C2012      C2017   1.409       .  A
C2012      H2019   1.085       .  S
C2013      C2014   1.414       .  A
C2014      C2015   1.409       .  A
C2014      C2021   1.521       .  S
C2015      C2016   1.408       .  A
C2015      H2020   1.080       .  S
C2016      C2017   1.419       .  A
C2017      C2018   1.514       .  S
C2018      F2022   1.383       .  S
C2018      F2023   1.375       .  S
C2018      F2024   1.383       .  S
C2021      F2025   1.383       .  S
C2021      F2026   1.381       .  S
C2021      F2027   1.385       .  S
C2028      C2029   1.402       .  A
C2028      C2033   1.406       .  A
C2028      H2035   1.083       .  S
C2029      C2030   1.414       .  A
C2030      C2031   1.403       .  A
C2030      C2037   1.519       .  S
C2031      C2032   1.402       .  A
C2031      H2036   1.083       .  S
C2032      C2033   1.415       .  A
C2033      C2034   1.516       .  S
C2034      F2038   1.385       .  S
C2034      F2039   1.383       .  S
C2034      F2040   1.382       .  S
C2037      F2041   1.383       .  S
C2037      F2042   1.383       .  S
C2037      F2043   1.384       .  S
C2044      C2045   1.416       .  A
C2044      C2049   1.410       .  A
C2044      C2694   1.494       .  S
C2045      C2046   1.410       .  A
C2045      H2050   1.082       .  S
C2046      C2263   1.467       .  S
C2047      C2048   1.390       .  A
C2047      H2051   1.086       .  S
C2048      C2710   1.471       .  S
C2049      H2052   1.084       .  S
C2053      C2054   1.424       .  A
C2053      C2058   1.409       .  A
C2053      C2681   1.497       .  S
C2054      C2055   1.414       .  A
C2054      H2059   1.083       .  S
C2055      C2056   1.401       .  A
C2055      C2125   1.491       .  S
C2056      C2057   1.391       .  A
C2056      H2060   1.085       .  S
C2057      C2058   1.399       .  A
C2057      C2713   1.476       .  S
C2058      H2061   1.084       .  S
C2062      C2063   1.411       .  A
C2062      C2067   1.420       .  A
C2062      C2649   1.498       .  S
C2063      H2068   1.083       .  S
C2064      C2065   1.387       .  A
C2064      C2665   1.467       .  S
C2065      H2069   1.086       .  S
C2066      C2067   1.409       .  A
C2066      C2248   1.465       .  S
C2067      H2070   1.083       .  S
C2071      C2072   1.405       .  A
C2071      C2076   1.422       .  A
C2072      C2073   1.391       .  A
C2072      H2077   1.084       .  S
C2073      C2074   1.385       .  A
C2073      C2662   1.464       .  S
C2074      C2075   1.400       .  A
C2074      H2078   1.085       .  S
C2075      C2076   1.417       .  A
C2075      C2124   1.487       .  S
C2076      H2079   1.083       .  S
C2080      C2598   1.492       .  S
C2081      C2082   1.393       .  A
C2082      C2083   1.387       .  A
C2082      C2614   1.468       .  S
C2083      C2084   1.399       .  A
C2083      H2087   1.085       .  S
C2084      C2085   1.414       .  A
C2084      C2122   1.483       .  S
C2085      H2088   1.080       .  S
C2089      C2090   1.418       .  A
C2089      C2094   1.408       .  A
C2089      C2585   1.492       .  S
C2090      C2091   1.409       .  A
C2090      H2095   1.083       .  S
C2091      C2092   1.391       .  A
C2091      C2262   1.466       .  S
C2092      C2093   1.388       .  A
C2092      H2096   1.086       .  S
C2093      C2094   1.398       .  A
C2093      C2617   1.468       .  S
C2094      H2097   1.083       .  S
C2098      C2099   1.421       .  A
C2098      C2103   1.421       .  A
C2098      C2646   1.504       .  S
C2099      C2100   1.423       .  A
C2099      C2601   1.495       .  S
C2100      C2101   1.420       .  A
C2100      C2697   1.499       .  S
C2101      C2102   1.419       .  A
C2101      C2630   1.505       .  S
C2102      C2103   1.424       .  A
C2102      C2582   1.496       .  S
C2103      C2678   1.500       .  S
O2104      C2120   1.270       .  A
O2104     Zn2110   1.994       .  S
C2105      C2158   1.467       .  S
C2105      O2121   1.270       .  A
C2105      O2118   1.277       .  A
O2106      C2119   1.276       .  A
O2106     Cd2113   2.094       .  S
O2107      C2125   1.277       .  A
O2107     Cd2116   2.111       .  S
O2108      C2122   1.275       .  A
O2108     Cd2112   2.092       .  S
O2109      C2120   1.274       .  A
O2109     Cd2112   2.085       .  S
Zn2110     O2121   1.989       .  S
Zn2110     O2123   1.991       .  S
Zn2110     O2115   1.917       .  S
O2111      C2122   1.276       .  A
O2111     Cd2116   2.049       .  S
Cd2112     O2114   2.051       .  S
Cd2112     O2115   2.006       .  S
Cd2113     O2117   2.103       .  S
Cd2113     O2126   2.061       .  S
Cd2113     O2115   2.013       .  S
O2114      C2124   1.277       .  A
O2115     Cd2116   2.011       .  S
Cd2116     O2118   2.098       .  S
O2117      C2124   1.276       .  A
C2119      C2138   1.467       .  S
C2119      O2123   1.272       .  A
C2120      C2174   1.465       .  S
C2125      O2126   1.278       .  A
C2127      C2128   1.418       .  A
C2127      C2132   1.405       .  A
C2127      C2550   1.488       .  S
C2128      C2129   1.414       .  A
C2128      H2133   1.083       .  S
C2129      C2130   1.395       .  A
C2129      C2271   1.472       .  S
C2130      C2131   1.389       .  A
C2130      H2134   1.086       .  S
C2131      C2132   1.397       .  A
C2131      C2566   1.469       .  S
C2132      H2135   1.084       .  S
C2136      C2137   1.413       .  A
C2136      C2141   1.406       .  A
C2136      C2534   1.483       .  S
C2137      C2138   1.405       .  A
C2137      H2142   1.083       .  S
C2138      C2139   1.396       .  A
C2139      C2140   1.393       .  A
C2139      H2143   1.085       .  S
C2140      C2141   1.399       .  A
C2140      C2569   1.471       .  S
C2141      H2144   1.084       .  S
C2145      C2146   1.423       .  A
C2145      C2150   1.408       .  A
C2145      C2505   1.496       .  S
C2146      C2147   1.416       .  A
C2146      H2151   1.082       .  S
C2147      C2148   1.392       .  A
C2147      C2285   1.473       .  S
C2148      C2149   1.385       .  A
C2148      H2152   1.086       .  S
C2149      C2150   1.395       .  A
C2149      C2518   1.465       .  S
C2150      H2153   1.084       .  S
C2154      C2155   1.410       .  A
C2154      C2159   1.419       .  A
C2154      C2486   1.496       .  S
C2155      C2156   1.401       .  A
C2155      H2160   1.083       .  S
C2156      C2157   1.390       .  A
C2156      C2521   1.467       .  S
C2157      C2158   1.391       .  A
C2157      H2161   1.086       .  S
C2158      C2159   1.407       .  A
C2159      H2162   1.083       .  S
C2163      C2164   1.418       .  A
C2163      C2168   1.406       .  A
C2163      C2454   1.486       .  S
C2164      C2165   1.411       .  A
C2164      H2169   1.083       .  S
C2165      C2166   1.395       .  A
C2165      C2286   1.470       .  S
C2166      C2167   1.389       .  A
C2166      H2170   1.086       .  S
C2167      C2168   1.395       .  A
C2167      C2470   1.467       .  S
C2168      H2171   1.084       .  S
C2172      C2173   1.417       .  A
C2172      C2177   1.408       .  A
C2172      C2441   1.494       .  S
C2173      C2174   1.403       .  A
C2173      H2178   1.083       .  S
C2174      C2175   1.393       .  A
C2175      C2176   1.393       .  A
C2175      H2179   1.086       .  S
C2176      C2177   1.399       .  A
C2176      C2473   1.468   1_655  S
C2181      C2182   1.428       .  A
C2181      C2489   1.516       .  S
C2182      C2553   1.511       .  S
C2183      C2184   1.430       .  A
C2184      C2185   1.423       .  A
C2184      C2502   1.513       .  S
C2185      C2537   1.498       .  S
C2186      C2457   1.502       .  S
C2187      C2188   1.423       .  A
C2187      C2192   1.409       .  A
C2187      C2406   1.495       .  S
C2188      C2189   1.419       .  A
C2188      H2193   1.082       .  S
C2189      C2190   1.403       .  A
C2189      C2291   1.493       .  S
C2190      C2191   1.386       .  A
C2190      H2194   1.085       .  S
C2191      C2192   1.396       .  A
C2191      C2422   1.475       .  S
C2192      H2195   1.084       .  S
C2196      C2197   1.408       .  A
C2196      C2201   1.417       .  A
C2196      C2390   1.489       .  S
C2197      H2202   1.084       .  S
C2198      C2199   1.388       .  A
C2198      C2425   1.476       .  S
C2199      H2203   1.085       .  S
C2200      C2201   1.409       .  A
C2200      C2268   1.483       .  S
C2201      H2204   1.083       .  S
C2205      C2206   1.426       .  A
C2205      C2210   1.412       .  A
C2206      C2207   1.419       .  A
C2206      H2211   1.083       .  S
C2207      C2208   1.399       .  A
C2207      C2288   1.492       .  S
C2208      C2209   1.385       .  A
C2208      H2212   1.085       .  S
C2209      C2210   1.398       .  A
C2209      C2374   1.473       .  S
C2210      H2213   1.084       .  S
C2214      C2215   1.421       .  A
C2214      C2342   1.495       .  S
C2215      C2216   1.410       .  A
C2215      H2220   1.083       .  S
C2217      C2218   1.387       .  A
C2217      H2221   1.085       .  S
C2218      C2219   1.396       .  A
C2218      C2377   1.473       .  S
C2219      H2222   1.083       .  S
C2223      C2224   1.420       .  A
C2223      C2228   1.412       .  A
C2223      C2310   1.501       .  S
C2224      C2225   1.407       .  A
C2224      H2229   1.083       .  S
C2225      C2226   1.397       .  A
C2225      C2265   1.481       .  S
C2226      C2227   1.387       .  A
C2226      H2230   1.085       .  S
C2227      C2228   1.399       .  A
C2227      C2329   1.469       .  S
C2228      H2231   1.082       .  S
C2232      C2233   1.408       .  A
C2232      C2237   1.428       .  A
C2233      C2234   1.392       .  A
C2233      H2238   1.085       .  S
C2234      C2235   1.382       .  A
C2234      C2326   1.468       .  S
C2235      C2236   1.401       .  A
C2235      H2239   1.085       .  S
C2236      C2237   1.423       .  A
C2236      C2290   1.495       .  S
C2237      H2240   1.082       .  S
C2241      C2242   1.429       .  A
C2241      C2246   1.425       .  A
C2241      C2345   1.493       .  S
C2242      C2243   1.426       .  A
C2242      C2409   1.511       .  S
C2243      C2244   1.424       .  A
C2243      C2313   1.505       .  S
C2244      C2245   1.421       .  A
C2244      C2361   1.498       .  S
C2245      C2246   1.419       .  A
C2245      C2393   1.500       .  S
C2246      C2297   1.513       .  S
O2247     Zn2253   2.003       .  S
C2248      O2264   1.271       .  A
C2248      O2261   1.275       .  A
O2249      C2262   1.275       .  A
O2249     Cd2256   2.085   1_554  S
O2250      C2268   1.275       .  A
O2251      C2265   1.275       .  A
O2251     Cd2255   2.089       .  S
O2252      C2263   1.273       .  A
Zn2253     O2264   2.000       .  S
Zn2253     O2258   1.920       .  S
O2254      C2265   1.274       .  A
O2254     Cd2259   2.037       .  S
Cd2255     O2258   2.003   1_556  S
Cd2256     O2260   2.107       .  S
Cd2256     O2269   2.043       .  S
O2257      C2267   1.271       .  A
O2258     Cd2259   2.003   1_554  S
Cd2259     O2261   2.085   1_556  S
C2262      O2266   1.274       .  A
O2270      C2286   1.271       .  A
O2270     Zn2276   1.989       .  S
C2271      O2287   1.272       .  A
C2271      O2284   1.276       .  A
O2272      C2285   1.276       .  A
O2272     Cd2279   2.104       .  S
O2273      C2291   1.277       .  A
O2273     Cd2282   2.050       .  S
O2274      C2288   1.278       .  A
O2274     Cd2278   2.056       .  S
O2275      C2286   1.276       .  A
O2275     Cd2278   2.100       .  S
Zn2276     O2287   2.003       .  S
Zn2276     O2289   1.998       .  S
Zn2276     O2281   1.916       .  S
O2277      C2288   1.278       .  A
O2277     Cd2282   2.118       .  S
Cd2278     O2280   2.121       .  S
Cd2278     O2281   2.024       .  S
Cd2279     O2283   2.054       .  S
Cd2279     O2292   2.123       .  S
Cd2279     O2281   2.020       .  S
O2280      C2290   1.278       .  A
O2281     Cd2282   2.021       .  S
Cd2282     O2284   2.099       .  S
O2283      C2290   1.278       .  A
C2285      O2289   1.272       .  A
C2291      O2292   1.279       .  A
C2293      C2294   1.405       .  A
C2293      C2298   1.409       .  A
C2293      H2300   1.085   1_655  S
C2294      C2295   1.417       .  A
C2295      C2296   1.415       .  A
C2295      C2302   1.517       .  S
C2296      C2297   1.410       .  A
C2296      H2301   1.083       .  S
C2297      C2298   1.423       .  A
C2298      C2299   1.510       .  S
C2299      F2303   1.383       .  S
C2299      F2304   1.384       .  S
C2299      F2305   1.367       .  S
C2302      F2306   1.383       .  S
C2302      F2307   1.381       .  S
C2302      F2308   1.385       .  S
C2309      C2310   1.399       .  A
C2309      C2314   1.399       .  A
C2309      H2316   1.083       .  S
C2310      C2311   1.423       .  A
C2311      C2312   1.412       .  A
C2311      C2318   1.516       .  S
C2312      C2313   1.405       .  A
C2312      H2317   1.082       .  S
C2313      C2314   1.428       .  A
C2314      C2315   1.514       .  S
C2315      F2319   1.384       .  S
C2315      F2320   1.363       .  S
C2315      F2321   1.384       .  S
C2318      F2322   1.382       .  S
C2318      F2323   1.383       .  S
C2318      F2324   1.384       .  S
C2325      C2326   1.399       .  A
C2325      C2330   1.401       .  A
C2325      H2332   1.084       .  S
C2326      C2327   1.414       .  A
C2327      C2328   1.404       .  A
C2327      C2334   1.518       .  S
C2328      C2329   1.402       .  A
C2328      H2333   1.083       .  S
C2329      C2330   1.415       .  A
C2330      C2331   1.518       .  S
C2331      F2335   1.385       .  S
C2331      F2336   1.382       .  S
C2331      F2337   1.382       .  S
C2334      F2338   1.383       .  S
C2334      F2339   1.382       .  S
C2334      F2340   1.385       .  S
C2341      C2342   1.400       .  A
C2341      C2346   1.403       .  A
C2341      H2348   1.084       .  S
C2342      C2343   1.422       .  A
C2343      C2344   1.405       .  A
C2343      C2350   1.514       .  S
C2344      C2345   1.401       .  A
C2344      H2349   1.084       .  S
C2345      C2346   1.426       .  A
C2346      C2347   1.519       .  S
C2347      F2351   1.384       .  S
C2347      F2352   1.374       .  S
C2347      F2353   1.381       .  S
C2350      F2354   1.383       .  S
C2350      F2356   1.384       .  S
C2357      C2358   1.401       .  A
C2357      C2362   1.409       .  A
C2357      H2364   1.085       .  S
C2358      C2359   1.420       .  A
C2359      C2360   1.408       .  A
C2359      C2366   1.516       .  S
C2360      C2361   1.402       .  A
C2360      H2365   1.082       .  S
C2361      C2362   1.426       .  A
C2362      C2363   1.521       .  S
C2363      F2367   1.383       .  S
C2363      F2368   1.383       .  S
C2363      F2369   1.380       .  S
C2366      F2371   1.383       .  S
C2366      F2372   1.382       .  S
C2373      C2374   1.402       .  A
C2373      C2378   1.403       .  A
C2373      H2380   1.083       .  S
C2374      C2375   1.414       .  A
C2375      C2376   1.406       .  A
C2375      C2382   1.517       .  S
C2376      C2377   1.403       .  A
C2376      H2381   1.083       .  S
C2377      C2378   1.414       .  A
C2378      C2379   1.518       .  S
C2379      F2383   1.384       .  S
C2379      F2384   1.383       .  S
C2379      F2385   1.382       .  S
C2382      F2387   1.383       .  S
C2382      F2388   1.385       .  S
C2389      C2390   1.395       .  A
C2389      C2394   1.400       .  A
C2389      H2396   1.085       .  S
C2390      C2391   1.420       .  A
C2391      C2392   1.412       .  A
C2391      C2398   1.515       .  S
C2392      C2393   1.405       .  A
C2392      H2397   1.084       .  S
C2393      C2394   1.427       .  A
C2394      C2395   1.514       .  S
C2395      F2399   1.384       .  S
C2395      F2400   1.384       .  S
C2395      F2401   1.368       .  S
C2398      F2402   1.382       .  S
C2398      F2403   1.383       .  S
C2398      F2404   1.384       .  S
C2405      C2406   1.403       .  A
C2405      C2410   1.411       .  A
C2405      H2412   1.085       .  S
C2406      C2407   1.415       .  A
C2407      C2408   1.412       .  A
C2407      C2414   1.517       .  S
C2408      C2409   1.410       .  A
C2408      H2413   1.083       .  S
C2409      C2410   1.425       .  A
C2410      C2411   1.511       .  S
C2411      F2415   1.383       .  S
C2411      F2416   1.371       .  S
C2411      F2417   1.383       .  S
C2414      F2418   1.383       .  S
C2414      F2419   1.382       .  S
C2414      F2420   1.385       .  S
C2421      C2422   1.402       .  A
C2421      C2426   1.406       .  A
C2421      H2428   1.083       .  S
C2422      C2423   1.414       .  A
C2423      C2424   1.406       .  A
C2423      C2430   1.518       .  S
C2424      C2425   1.403       .  A
C2424      H2429   1.083       .  S
C2425      C2426   1.414       .  A
C2426      C2427   1.517       .  S
C2427      F2431   1.384       .  S
C2427      F2433   1.382       .  S
C2430      F2434   1.383       .  S
C2430      F2435   1.383       .  S
C2430      F2436   1.384       .  S
C2437      C2438   1.404       .  A
C2437      C2442   1.409       .  A
C2438      C2439   1.427       .  A
C2439      C2440   1.404       .  A
C2439      C2446   1.515       .  S
C2440      C2441   1.398       .  A
C2440      H2445   1.082       .  S
C2441      C2442   1.422       .  A
C2442      C2443   1.518       .  S
C2443      F2447   1.384       .  S
C2443      F2448   1.382       .  S
C2446      F2452   1.385       .  S
C2453      C2454   1.398       .  A
C2453      C2458   1.408       .  A
C2453      H2460   1.083       .  S
C2454      C2455   1.419       .  A
C2455      C2456   1.407       .  A
C2455      C2462   1.516       .  S
C2456      C2457   1.402       .  A
C2456      H2461   1.079       .  S
C2457      C2458   1.426       .  A
C2459      F2463   1.385       .  S
C2459      F2464   1.373       .  S
C2459      F2465   1.376   1_565  S
C2462      F2466   1.382       .  S
C2462      F2467   1.383       .  S
C2462      F2468   1.384       .  S
C2469      C2470   1.402       .  A
C2469      C2474   1.404       .  A
C2469      H2476   1.083       .  S
C2471      C2472   1.400   1_455  A
C2471      C2478   1.518   1_455  S
C2472      C2473   1.403   1_655  A
C2472      H2477   1.084       .  S
C2474      C2475   1.517       .  S
C2475      F2479   1.385       .  S
C2475      F2480   1.383       .  S
C2475      F2481   1.383       .  S
C2478      F2482   1.382       .  S
C2478      F2483   1.383       .  S
C2478      F2484   1.385       .  S
C2485      C2486   1.395       .  A
C2485      C2490   1.403       .  A
C2485      H2492   1.082       .  S
C2486      C2487   1.421       .  A
C2487      C2488   1.412       .  A
C2487      C2494   1.516       .  S
C2488      C2489   1.406       .  A
C2488      H2493   1.076       .  S
C2489      C2490   1.428       .  A
C2490      C2491   1.508       .  S
C2491      F2497   1.366       .  S
C2494      F2498   1.382       .  S
C2494      F2499   1.382       .  S
C2494      F2500   1.385       .  S
C2501      C2502   1.409       .  A
C2501      C2506   1.410       .  A
C2501      H2508   1.076       .  S
C2502      C2503   1.423       .  A
C2503      C2504   1.411       .  A
C2503      C2510   1.510       .  S
C2504      C2505   1.407       .  A
C2504      H2509   1.085       .  S
C2505      C2506   1.414       .  A
C2506      C2507   1.519       .  S
C2507      F2511   1.385       .  S
C2507      F2512   1.381       .  S
C2507      F2513   1.383       .  S
C2510      F2515   1.369       .  S
C2510      F2516   1.384       .  S
C2517      C2518   1.399       .  A
C2517      C2522   1.402       .  A
C2517      H2524   1.084       .  S
C2518      C2519   1.414       .  A
C2519      C2520   1.403       .  A
C2519      C2526   1.518       .  S
C2520      C2521   1.401       .  A
C2520      H2525   1.083       .  S
C2521      C2522   1.415       .  A
C2522      C2523   1.517       .  S
C2523      F2527   1.385       .  S
C2523      F2528   1.381       .  S
C2523      F2529   1.383       .  S
C2526      F2530   1.383       .  S
C2526      F2531   1.383       .  S
C2526      F2532   1.384       .  S
C2533      C2534   1.395       .  A
C2533      C2538   1.401       .  A
C2533      H2540   1.085       .  S
C2534      C2535   1.419       .  A
C2535      C2536   1.409       .  A
C2535      C2542   1.517       .  S
C2536      C2537   1.404       .  A
C2536      H2541   1.080       .  S
C2537      C2538   1.426       .  A
C2538      C2539   1.513       .  S
C2539      F2543   1.383       .  S
C2539      F2544   1.384       .  S
C2539      F2545   1.372       .  S
C2542      F2546   1.382       .  S
C2542      F2547   1.383       .  S
C2542      F2548   1.384       .  S
C2549      C2550   1.395       .  A
C2550      C2551   1.416       .  A
C2551      C2552   1.413       .  A
C2551      C2558   1.517       .  S
C2552      C2553   1.409       .  A
C2552      H2557   1.080       .  S
C2554      C2555   1.516       .  S
C2555      F2559   1.383       .  S
C2555      F2560   1.383       .  S
C2555      F2561   1.372       .  S
C2558      F2562   1.382       .  S
C2558      F2563   1.383       .  S
C2558      F2564   1.385       .  S
C2565      C2570   1.403       .  A
C2565      H2572   1.083       .  S
C2566      C2567   1.415   1_565  A
C2567      C2574   1.518       .  S
C2568      C2569   1.401       .  A
C2568      H2573   1.083       .  S
C2569      C2570   1.414       .  A
C2570      C2571   1.517       .  S
C2571      F2575   1.385       .  S
C2571      F2576   1.383       .  S
C2571      F2577   1.380       .  S
C2574      F2578   1.382       .  S
C2574      F2579   1.385       .  S
C2574      F2580   1.383       .  S
C2581      C2582   1.401       .  A
C2581      C2586   1.409       .  A
C2581      H2588   1.082       .  S
C2582      C2583   1.426       .  A
C2583      C2584   1.404       .  A
C2583      C2590   1.516       .  S
C2584      C2585   1.398       .  A
C2584      H2589   1.085       .  S
C2585      C2586   1.422       .  A
C2586      C2587   1.517       .  S
C2587      F2591   1.384       .  S
C2587      F2592   1.383       .  S
C2587      F2593   1.382       .  S
C2590      F2594   1.374       .  S
C2590      F2595   1.383       .  S
C2590      F2596   1.384       .  S
C2597      C2598   1.408       .  A
C2597      C2602   1.406       .  A
C2597      H2604   1.085       .  S
C2598      C2599   1.418       .  A
C2599      C2600   1.408       .  A
C2599      C2606   1.521       .  S
C2600      C2601   1.406       .  A
C2600      H2605   1.081       .  S
C2601      C2602   1.415       .  A
C2602      C2603   1.513       .  S
C2603      F2607   1.383       .  S
C2603      F2608   1.376       .  S
C2603      F2609   1.383       .  S
C2606      F2610   1.381       .  S
C2606      F2611   1.383       .  S
C2606      F2612   1.385       .  S
C2613      C2614   1.403       .  A
C2613      C2618   1.400       .  A
C2613      H2620   1.084       .  S
C2614      C2615   1.412       .  A
C2615      C2616   1.403       .  A
C2615      C2622   1.517       .  S
C2616      C2617   1.404       .  A
C2616      H2621   1.084       .  S
C2617      C2618   1.412       .  A
C2618      C2619   1.518       .  S
C2619      F2623   1.380       .  S
C2619      F2624   1.385       .  S
C2619      F2625   1.383       .  S
C2622      F2626   1.382   1_655  S
C2622      F2627   1.383       .  S
C2622      F2628   1.385   1_655  S
C2629      C2630   1.405       .  A
C2629      C2634   1.411       .  A
C2629      H2636   1.082       .  S
C2630      C2631   1.428       .  A
C2631      C2632   1.405       .  A
C2631      C2638   1.516       .  S
C2632      C2633   1.398       .  A
C2632      H2637   1.085       .  S
C2633      C2634   1.421       .  A
C2634      C2635   1.517   1_565  S
C2635      F2639   1.384   1_545  S
C2635      F2640   1.382   1_545  S
C2638      F2642   1.383       .  S
C2638      F2643   1.371       .  S
C2638      F2644   1.383       .  S
C2645      C2646   1.404       .  A
C2645      C2650   1.410       .  A
C2645      H2652   1.082       .  S
C2646      C2647   1.428       .  A
C2647      C2648   1.405       .  A
C2647      C2654   1.514       .  S
C2648      C2649   1.398       .  A
C2648      H2653   1.084       .  S
C2649      C2650   1.422       .  A
C2650      C2651   1.515       .  S
C2651      F2655   1.384       .  S
C2651      F2656   1.382       .  S
C2651      F2657   1.383       .  S
C2654      F2658   1.369       .  S
C2654      F2659   1.384       .  S
C2654      F2660   1.383       .  S
C2661      C2662   1.398       .  A
C2661      C2666   1.399       .  A
C2661      H2668   1.084       .  S
C2662      C2663   1.412       .  A
C2663      C2664   1.404       .  A
C2663      C2670   1.517       .  S
C2664      C2665   1.402       .  A
C2664      H2669   1.083       .  S
C2665      C2666   1.416       .  A
C2666      C2667   1.518       .  S
C2667      F2671   1.385       .  S
C2667      F2673   1.382       .  S
C2670      F2674   1.383       .  S
C2670      F2675   1.383       .  S
C2670      F2676   1.384       .  S
C2677      C2678   1.403       .  A
C2677      C2682   1.413       .  A
C2677      H2684   1.083       .  S
C2678      C2679   1.426       .  A
C2679      C2680   1.405       .  A
C2679      C2686   1.518       .  S
C2680      C2681   1.399       .  A
C2680      H2685   1.085       .  S
C2681      C2682   1.425       .  A
C2682      C2683   1.517       .  S
C2683      F2687   1.384       .  S
C2683      F2688   1.383       .  S
C2683      F2689   1.382       .  S
C2686      F2690   1.384       .  S
C2686      F2691   1.373       .  S
C2686      F2692   1.383       .  S
C2693      C2694   1.407       .  A
C2693      C2698   1.409       .  A
C2693      H2700   1.085       .  S
C2694      C2695   1.417       .  A
C2695      C2696   1.409       .  A
C2695      C2702   1.520       .  S
C2696      C2697   1.407       .  A
C2696      H2701   1.080       .  S
C2697      C2698   1.418       .  A
C2698      C2699   1.514       .  S
C2699      F2703   1.383       .  S
C2699      F2704   1.376       .  S
C2699      F2705   1.383       .  S
C2702      F2706   1.383       .  S
C2702      F2707   1.381       .  S
C2702      F2708   1.385       .  S
C2709      C2710   1.402       .  A
C2709      C2714   1.405       .  A
C2709      H2716   1.083       .  S
C2710      C2711   1.413       .  A
C2711      C2712   1.402       .  A
C2711      C2718   1.518       .  S
C2712      C2713   1.404       .  A
C2712      H2717   1.084       .  S
C2713      C2714   1.414       .  A
C2714      C2715   1.517       .  S
C2715      F2719   1.385       .  S
C2715      F2720   1.383       .  S
C2715      F2721   1.381       .  S
C2718      F2722   1.382       .  S
C2718      F2723   1.383       .  S
C2718      F2724   1.385       .  S
