geometry optimzed in LAMMPS
_audit_creation_date              2020-11-30 
_audit_creation_method            'lammps2cif' 
_symmetry_space_group_name_H-M    'P1' 
_symmetry_Int_Tables_number       1 
_symmetry_cell_setting            triclinic 
loop_ 
_symmetry_equiv_pos_as_xyz 
  x,y,z 
_cell_length_a                    50.9502407 
_cell_length_b                    50.05367750857062 
_cell_length_c                    48.55952798620056 
_cell_angle_alpha                 89.73761535868535 
_cell_angle_beta                  90.40782412382995 
_cell_angle_gamma                 118.99949040745129 
loop_ 
_atom_site_label 
_atom_site_type_symbol 
_atom_site_fract_x 
_atom_site_fract_y 
_atom_site_fract_z 
_atom_site_charge 
Fe1        Fe  0.14087732  0.35531345  0.37539846     1.65800
Fe2        Fe  0.20806740  0.35598954  0.37279735     1.73200
Fe3        Fe  0.14265496  0.28793931  0.37399298     1.54400
O4          O  0.11589820  0.28469652  0.40676016    -0.82000
O5          O  0.21139268  0.32702758  0.34409452    -0.80300
O6          O  0.10957853  0.32550577  0.40329888    -0.84500
O7          O  0.11441867  0.33134669  0.34271417    -0.79300
O8          O  0.17229506  0.28512737  0.40207521    -0.81100
O9          O  0.20848096  0.38285524  0.34044017    -0.83900
C10         C  0.10320393  0.30380346  0.33495261     0.96900
C11         C  0.10336039  0.30000615  0.41419000     1.04300
O12         O  0.16386309  0.33302682  0.37409483    -1.12800
O13         O  0.21127217  0.38839570  0.40143270    -0.75300
O14         O  0.16525066  0.38158297  0.40818699    -0.78800
O15         O  0.11039111  0.28506084  0.34586206    -0.79400
C16         C  0.19300353  0.39450677  0.41405463     0.95800
O17         O  0.16843367  0.38857471  0.34759282    -0.77400
O18         O  0.21229719  0.33146599  0.40488026    -0.82600
C19         C  0.19358241  0.30136063  0.33331317     0.98400
C20         C  0.19754045  0.30384262  0.41262213     1.04400
O21         O  0.16666902  0.28543859  0.34117835    -0.78200
C22         C  0.19260423  0.39538393  0.33490345     1.02700
Fe23       Fe  0.35871981  0.14524858  0.12359553     1.65800
Fe24       Fe  0.29153755  0.14464565  0.12596394     1.73200
Fe25       Fe  0.35699648  0.21266964  0.12454754     1.54400
O26         O  0.38923492  0.21569664  0.15279369    -0.82000
O27         O  0.28733227  0.16909728  0.09378145    -0.80300
O28         O  0.38525805  0.16944947  0.15611605    -0.84500
O29         O  0.38994622  0.17477400  0.09555879    -0.79300
O30         O  0.33288924  0.21534380  0.15724570    -0.81100
O31         O  0.28834639  0.11220343  0.09741331    -0.83900
C32         C  0.39623761  0.20022742  0.08454241     0.96900
C33         C  0.39646156  0.19701716  0.16377678     1.04300
O34         O  0.33575479  0.16757780  0.12466795    -1.12800
O35         O  0.29108545  0.11788259  0.15845613    -0.75300
O36         O  0.33128470  0.11234110  0.15165686    -0.78800
O37         O  0.38379796  0.21567456  0.09186209    -0.79400
C38         C  0.30712185  0.10561025  0.16430833     0.95800
O39         O  0.33429757  0.11871169  0.09094824    -0.77400
O40         O  0.28821427  0.17366008  0.15456316    -0.82600
C41         C  0.30216096  0.19664276  0.08583199     0.98400
C42         C  0.30599832  0.19940897  0.16520323     1.04400
O43         O  0.32744207  0.21537961  0.09629693    -0.78200
C44         C  0.30658976  0.10595273  0.08493190     1.02700
C45         C  0.41925384  0.21264360  0.06258070    -0.03500
C46         C  0.42441058  0.23902128  0.04791937    -0.06100
C47         C  0.44650035  0.25117607  0.02764546    -0.21200
C48         C  0.46426587  0.23757339  0.02174018     0.24500
C49         C  0.45894238  0.21095200  0.03616904    -0.18700
C50         C  0.43670394  0.19867467  0.05637641    -0.08700
C51         C  0.48746944  0.25150827  0.99996322    -0.19000
C52         C  0.01176836  0.24756231  0.49837291    -0.23800
C53         C  0.03505001  0.26173917  0.47669436     0.26600
C54         C  0.05269047  0.24809651  0.47042908    -0.20600
C55         C  0.07489859  0.26057740  0.45027832    -0.10200
C56         C  0.08029345  0.28731603  0.43610448    -0.10700
C57         C  0.06298578  0.30132846  0.44270427    -0.03700
C58         C  0.04063664  0.28873189  0.46278973    -0.18800
H59         H  0.41135164  0.25033966  0.05207845     0.10300
H60         H  0.44993795  0.27152208  0.01670801     0.10400
H61         H  0.47145457  0.19917369  0.03169323     0.10000
H62         H  0.43326954  0.17827933  0.06720992     0.11100
H63         H  0.98447202  0.26599939  0.98503352     0.11200
H64         H  0.51478170  0.23303441  0.51324542     0.13100
H65         H  0.04906466  0.22748025  0.48098322     0.09700
H66         H  0.08784168  0.24920662  0.44581253     0.11700
H67         H  0.06661539  0.32200476  0.43227549     0.08400
H68         H  0.02824496  0.30055065  0.46760588     0.11100
C69         C  0.08055459  0.29329399  0.31253321    -0.03500
C70         C  0.07508441  0.31447086  0.29796063    -0.06100
C71         C  0.05294633  0.30470844  0.27756616    -0.21200
C72         C  0.03550987  0.27358329  0.27146790     0.24500
C73         C  0.04139612  0.25236291  0.28552588    -0.18700
C74         C  0.06370555  0.26215701  0.30586853    -0.08700
C75         C  0.51190526  0.26438002  0.24995223    -0.19000
C76         C  0.48740594  0.23660670  0.24910078    -0.23800
C77         C  0.46391251  0.22736875  0.22748235     0.26600
C78         C  0.44677098  0.19626952  0.22117322    -0.20600
C79         C  0.42476093  0.18647884  0.20066525    -0.10200
C80         C  0.41910747  0.20759374  0.18619664    -0.10700
C81         C  0.43570729  0.23870589  0.19302445    -0.03700
C82         C  0.45789710  0.24853081  0.21348425    -0.18800
H83         H  0.08782295  0.33867356  0.30237964     0.10300
H84         H  0.04910066  0.32151549  0.26681023     0.10400
H85         H  0.02916389  0.22827265  0.28071427     0.10000
H86         H  0.06753743  0.24530542  0.31654586     0.11100
H87         H  0.51470183  0.28143561  0.23468840     0.11200
H88         H  0.98459323  0.21953684  0.26435188     0.13100
H89         H  0.45074951  0.17951062  0.23185720     0.09700
H90         H  0.41224421  0.16229650  0.19610042     0.11700
H91         H  0.43174204  0.25550615  0.18241580     0.08400
H92         H  0.46993596  0.27259331  0.21844587     0.11100
C93         C  0.29699894  0.08214490  0.18636497    -0.03500
C94         C  0.31242544  0.06574477  0.19160620    -0.06100
C95         C  0.30188157  0.04244111  0.21131237    -0.21200
C96         C  0.27560868  0.03482378  0.22610460     0.24500
C97         C  0.26078722  0.05199698  0.22164340    -0.18700
C98         C  0.27131337  0.07529604  0.20192796    -0.08700
C99         C  0.26470077  0.00914303  0.24614240    -0.19000
C100        C  0.23586846  0.49304931  0.25421043    -0.23800
C101        C  0.22490627  0.46728274  0.27414495     0.26600
C102        C  0.19873342  0.45976725  0.28906616    -0.20600
C103        C  0.18794229  0.43613783  0.30845895    -0.10200
C104        C  0.20300371  0.41928933  0.31322823    -0.10700
C105        C  0.22867852  0.42616491  0.29762687    -0.03700
C106        C  0.23946475  0.44980584  0.27824284    -0.18800
H107        H  0.33240916  0.07054503  0.18015775     0.10300
H108        H  0.31397213  0.02988105  0.21461416     0.10400
H109        H  0.24119366  0.04776163  0.23340398     0.10000
H110        H  0.25917293  0.08781747  0.19876404     0.11100
H111        H  0.28108293  0.50302322  0.25396449     0.11200
H112        H  0.21947274  0.99914949  0.24639989     0.13100
H113        H  0.18687657  0.47260720  0.28606119     0.09700
H114        H  0.16803215  0.43139464  0.32000350     0.11700
H115        H  0.24058760  0.41336575  0.30047831     0.08400
H116        H  0.25900470  0.45402828  0.26639603     0.11100
C117        C  0.29521662  0.08250694  0.06283155    -0.03500
C118        C  0.31520340  0.07627224  0.04792269    -0.06100
C119        C  0.30460979  0.05348956  0.02780296    -0.21200
C120        C  0.27379714  0.03613809  0.02214473     0.24500
C121        C  0.25374947  0.04268359  0.03670754    -0.18700
C122        C  0.26437391  0.06556882  0.05684274    -0.08700
C123        C  0.26386999  0.01210197  0.50049227    -0.19000
C124        C  0.23565024  0.48868519  0.49818988    -0.23800
C125        C  0.22575804  0.46460849  0.47658763     0.26600
C126        C  0.19497968  0.44742831  0.47073290    -0.20600
C127        C  0.18440933  0.42453867  0.45071933    -0.10200
C128        C  0.20437920  0.41802169  0.43610543    -0.10700
C129        C  0.23519202  0.43480334  0.44228718    -0.03700
C130        C  0.24579480  0.45779749  0.46232926    -0.18800
H131        H  0.33912492  0.08890386  0.05186727     0.10300
H132        H  0.32060363  0.04918845  0.01678484     0.10400
H133        H  0.22992408  0.03062463  0.03247710     0.10000
H134        H  0.24836947  0.06987936  0.06781020     0.11100
H135        H  0.28084705  0.01379844  0.48618449     0.11200
H136        H  0.21864772  0.48698043  0.51246547     0.13100
H137        H  0.17899634  0.45194054  0.48151889     0.09700
H138        H  0.16051485  0.41206201  0.44660920     0.11700
H139        H  0.25118297  0.43027756  0.43155293     0.08400
H140        H  0.26958526  0.46973066  0.46674995     0.11100
C141        C  0.28901582  0.20713160  0.06369556    -0.03500
C142        C  0.26133327  0.18651624  0.05163999    -0.06100
C143        C  0.24836422  0.19616761  0.03123317    -0.21200
C144        C  0.26248864  0.22668073  0.02247996     0.24500
C145        C  0.29042165  0.24735291  0.03420805    -0.18700
C146        C  0.30349564  0.23765707  0.05463771    -0.08700
C147        C  0.24760525  0.23558916  0.50062415    -0.19000
C148        C  0.25258009  0.26435091  0.49693813    -0.23800
C149        C  0.23757352  0.27336023  0.47525409     0.26600
C150        C  0.25099960  0.30418529  0.46750688    -0.20600
C151        C  0.23788372  0.31399698  0.44737442    -0.10200
C152        C  0.21075545  0.29321451  0.43456674    -0.10700
C153        C  0.19696259  0.26236413  0.44259729    -0.03700
C154        C  0.21017053  0.25251119  0.46275562    -0.18800
H155        H  0.24953185  0.16281253  0.05800413     0.10300
H156        H  0.22698749  0.17972613  0.02242219     0.10400
H157        H  0.30253994  0.27085874  0.02742608     0.10000
H158        H  0.32492843  0.25408401  0.06333328     0.11100
H159        H  0.23152207  0.21743693  0.48756177     0.11200
H160        H  0.26862783  0.28241863  0.01010997     0.13100
H161        H  0.27193545  0.32077720  0.47691982     0.09700
H162        H  0.24913120  0.33795685  0.44181622     0.11700
H163        H  0.17598270  0.24578597  0.43326822     0.08400
H164        H  0.19851943  0.22871360  0.46869079     0.11100
C165        C  0.29495038  0.21180414  0.18735361    -0.03500
C166        C  0.31480112  0.23906443  0.20091502    -0.06100
C167        C  0.30435060  0.25168795  0.22079578    -0.21200
C168        C  0.27377742  0.23767564  0.22745205     0.24500
C169        C  0.25392646  0.20999327  0.21439800    -0.18700
C170        C  0.26442213  0.19722977  0.19457754    -0.08700
C171        C  0.26385327  0.25240696  0.24850735    -0.19000
C172        C  0.23563065  0.24806880  0.25015072    -0.23800
C173        C  0.22571797  0.26297425  0.27109401     0.26600
C174        C  0.19495534  0.24990568  0.27673879    -0.20600
C175        C  0.18452845  0.26261278  0.29657917    -0.10200
C176        C  0.20461582  0.28901475  0.31112235    -0.10700
C177        C  0.23534585  0.30270607  0.30489453    -0.03700
C178        C  0.24580450  0.28988800  0.28510989    -0.18800
H179        H  0.33848975  0.25085828  0.19604436     0.10300
H180        H  0.32019747  0.27280923  0.23072626     0.10400
H181        H  0.23036071  0.19788276  0.21958683     0.10000
H182        H  0.24854346  0.17609974  0.18470460     0.11900
H183        H  0.28086554  0.26791074  0.26274090     0.11200
H184        H  0.21869924  0.23257763  0.23582616     0.13100
H185        H  0.17891369  0.22943886  0.26605454     0.09700
H186        H  0.16067230  0.25155630  0.30065636     0.11700
H187        H  0.25141531  0.32315147  0.31556531     0.08400
H188        H  0.26956821  0.30140021  0.28077936     0.11100
Fe189      Fe  0.14087732  0.35531347  0.87539841     1.65800
Fe190      Fe  0.20806740  0.35598954  0.87279736     1.73200
Fe191      Fe  0.14265495  0.28793930  0.87399297     1.54400
O192        O  0.11589815  0.28469653  0.90676010    -0.82000
O193        O  0.21139273  0.32702764  0.84409452    -0.80300
O194        O  0.10957854  0.32550583  0.90329891    -0.84500
O195        O  0.11441868  0.33134666  0.84271410    -0.79300
O196        O  0.17229505  0.28512734  0.90207523    -0.81100
O197        O  0.20848098  0.38285528  0.84044017    -0.83900
C198        C  0.10320393  0.30380343  0.83495254     0.96900
C199        C  0.10336037  0.30000620  0.91418999     1.04300
O200        O  0.16386309  0.33302683  0.87409485    -1.12800
O201        O  0.21127218  0.38839565  0.90143274    -0.75300
O202        O  0.16525068  0.38158305  0.90818689    -0.78800
O203        O  0.11039107  0.28506078  0.84586202    -0.79400
C204        C  0.19300353  0.39450678  0.91405458     0.95800
O205        O  0.16843372  0.38857479  0.84759284    -0.77400
O206        O  0.21229718  0.33146596  0.90488025    -0.82600
C207        C  0.19358246  0.30136070  0.83331316     0.98400
C208        C  0.19754043  0.30384259  0.91262213     1.04400
O209        O  0.16666908  0.28543862  0.84117837    -0.78200
C210        C  0.19260427  0.39538401  0.83490348     1.02700
Fe211      Fe  0.35871980  0.14524856  0.62359550     1.65800
Fe212      Fe  0.29153752  0.14464562  0.62596396     1.73200
Fe213      Fe  0.35699646  0.21266961  0.62454752     1.54400
O214        O  0.38923493  0.21569670  0.65279365    -0.82000
O215        O  0.28733223  0.16909726  0.59378146    -0.80300
O216        O  0.38525803  0.16944952  0.65611600    -0.84500
O217        O  0.38994620  0.17477402  0.59555878    -0.79300
O218        O  0.33288926  0.21534377  0.65724569    -0.81100
O219        O  0.28834636  0.11220339  0.59741330    -0.83900
C220        C  0.39623762  0.20022746  0.58454240     0.96900
C221        C  0.39646156  0.19701721  0.66377673     1.04300
O222        O  0.33575477  0.16757776  0.62466793    -1.12800
O223        O  0.29108542  0.11788253  0.65845614    -0.75300
O224        O  0.33128468  0.11234105  0.65165682    -0.78800
O225        O  0.38379797  0.21567460  0.59186206    -0.79400
C226        C  0.30712186  0.10561023  0.66430834     0.95800
O227        O  0.33429755  0.11871167  0.59094820    -0.77400
O228        O  0.28821426  0.17366009  0.65456318    -0.82600
C229        C  0.30216090  0.19664272  0.58583200     0.98400
C230        C  0.30599835  0.19940898  0.66520325     1.04400
O231        O  0.32744204  0.21537957  0.59629691    -0.78200
C232        C  0.30658973  0.10595270  0.58493186     1.02700
C233        C  0.41925384  0.21264359  0.56258069    -0.03500
C234        C  0.42441066  0.23902134  0.54791943    -0.06100
C235        C  0.44650037  0.25117606  0.52764545    -0.21200
C236        C  0.46426586  0.23757335  0.52174017     0.24500
C237        C  0.45894239  0.21095197  0.53616904    -0.18700
C238        C  0.43670387  0.19867460  0.55637635    -0.08700
C239        C  0.48746941  0.25150817  0.49996318    -0.19000
C240        C  0.01176838  0.24756232  0.99837295    -0.23800
C241        C  0.03505000  0.26173918  0.97669438     0.26600
C242        C  0.05269043  0.24809647  0.97042906    -0.20600
C243        C  0.07489857  0.26057740  0.95027832    -0.10200
C244        C  0.08029345  0.28731603  0.93610450    -0.10700
C245        C  0.06298576  0.30132847  0.94270429    -0.03700
C246        C  0.04063665  0.28873189  0.96278977    -0.18800
H247        H  0.41135182  0.25033978  0.55207861     0.10300
H248        H  0.44993796  0.27152205  0.51670797     0.10400
H249        H  0.47145460  0.19917370  0.53169328     0.10000
H250        H  0.43326939  0.17827920  0.56720980     0.11100
H251        H  0.98447208  0.26599947  0.48503351     0.11200
H252        H  0.51478171  0.23303450  0.01324545     0.13100
H253        H  0.04906457  0.22748022  0.98098320     0.09700
H254        H  0.08784168  0.24920660  0.94581252     0.11700
H255        H  0.06661534  0.32200473  0.93227549     0.08400
H256        H  0.02824499  0.30055067  0.96760598     0.11100
C257        C  0.08055461  0.29329400  0.81253314    -0.03500
C258        C  0.07508440  0.31447089  0.79796060    -0.06100
C259        C  0.05294631  0.30470848  0.77756617    -0.21200
C260        C  0.03550986  0.27358335  0.77146787     0.24500
C261        C  0.04139613  0.25236293  0.78552580    -0.18700
C262        C  0.06370553  0.26215704  0.80586847    -0.08700
C263        C  0.51190523  0.26438002  0.74995225    -0.19000
C264        C  0.48740591  0.23660670  0.74910079    -0.23800
C265        C  0.46391249  0.22736878  0.72748236     0.26600
C266        C  0.44677094  0.19626956  0.72117322    -0.20600
C267        C  0.42476092  0.18647886  0.70066523    -0.10200
C268        C  0.41910749  0.20759378  0.68619659    -0.10700
C269        C  0.43570734  0.23870594  0.69302437    -0.03700
C270        C  0.45789710  0.24853082  0.71348419    -0.18800
H271        H  0.08782294  0.33867360  0.80237964     0.10300
H272        H  0.04910061  0.32151558  0.76681026     0.10400
H273        H  0.02916396  0.22827274  0.78071415     0.10000
H274        H  0.06753737  0.24530541  0.81654584     0.11100
H275        H  0.51470180  0.28143560  0.73468844     0.11200
H276        H  0.98459338  0.21953678  0.76435172     0.13100
H277        H  0.45074948  0.17951064  0.73185724     0.09700
H278        H  0.41224418  0.16229654  0.69610043     0.11700
H279        H  0.43174213  0.25550620  0.68241568     0.08400
H280        H  0.46993598  0.27259338  0.71844578     0.11100
C281        C  0.29699899  0.08214494  0.68636502    -0.03500
C282        C  0.31242546  0.06574475  0.69160619    -0.06100
C283        C  0.30188153  0.04244109  0.71131237    -0.21200
C284        C  0.27560868  0.03482384  0.72610462     0.24500
C285        C  0.26078727  0.05199709  0.72164344    -0.18700
C286        C  0.27131346  0.07529614  0.70192800    -0.08700
C287        C  0.26470074  0.00914303  0.74614235    -0.19000
C288        C  0.23586851  0.49304938  0.75421047    -0.23800
C289        C  0.22490631  0.46728285  0.77414500     0.26600
C290        C  0.19873347  0.45976737  0.78906620    -0.20600
C291        C  0.18794235  0.43613795  0.80845899    -0.10200
C292        C  0.20300377  0.41928945  0.81322828    -0.10700
C293        C  0.22867856  0.42616501  0.79762689    -0.03700
C294        C  0.23946481  0.44980596  0.77824287    -0.18800
H295        H  0.33240906  0.07054490  0.68015771     0.10300
H296        H  0.31397204  0.02988095  0.71461412     0.10400
H297        H  0.24119367  0.04776175  0.73340398     0.10000
H298        H  0.25917302  0.08781759  0.69876402     0.11100
H299        H  0.28108293  0.50302304  0.75396430     0.11200
H300        H  0.21947276  0.99914958  0.74639993     0.13100
H301        H  0.18687662  0.47260731  0.78606122     0.09700
H302        H  0.16803219  0.43139475  0.82000353     0.11700
H303        H  0.24058762  0.41336583  0.80047827     0.08400
H304        H  0.25900471  0.45402837  0.76639606     0.11100
C305        C  0.29521659  0.08250692  0.56283151    -0.03500
C306        C  0.31520336  0.07627217  0.54792266    -0.06100
C307        C  0.30460973  0.05348953  0.52780290    -0.21200
C308        C  0.27379709  0.03613807  0.52214469     0.24500
C309        C  0.25374944  0.04268357  0.53670752    -0.18700
C310        C  0.26437389  0.06556881  0.55684270    -0.08700
C311        C  0.26387001  0.01210201  0.00049229    -0.19000
C312        C  0.23565027  0.48868518  0.99818985    -0.23800
C313        C  0.22575806  0.46460848  0.97658755     0.26600
C314        C  0.19497966  0.44742829  0.97073285    -0.20600
C315        C  0.18440932  0.42453864  0.95071926    -0.10200
C316        C  0.20437919  0.41802169  0.93610538    -0.10700
C317        C  0.23519202  0.43480333  0.94228710    -0.03700
C318        C  0.24579480  0.45779752  0.96232915    -0.18800
H319        H  0.33912487  0.08890374  0.55186723     0.10300
H320        H  0.32060357  0.04918842  0.51678474     0.10400
H321        H  0.22992401  0.03062456  0.53247711     0.10000
H322        H  0.24836946  0.06987941  0.56781011     0.11100
H323        H  0.28084710  0.01379849  0.98618454     0.11200
H324        H  0.21864781  0.48698043  0.01246543     0.13100
H325        H  0.17899634  0.45194051  0.98151880     0.09700
H326        H  0.16051483  0.41206194  0.94660917     0.11700
H327        H  0.25118297  0.43027753  0.93155293     0.08400
H328        H  0.26958528  0.46973074  0.96674977     0.11100
C329        C  0.28901579  0.20713161  0.56369558    -0.03500
C330        C  0.26133324  0.18651624  0.55164000    -0.06100
C331        C  0.24836420  0.19616759  0.53123316    -0.21200
C332        C  0.26248863  0.22668073  0.52247996     0.24500
C333        C  0.29042164  0.24735288  0.53420802    -0.18700
C334        C  0.30349560  0.23765707  0.55463769    -0.08700
C335        C  0.24760528  0.23558913  0.00062412    -0.19000
C336        C  0.25258004  0.26435086  0.99693813    -0.23800
C337        C  0.23757349  0.27336021  0.97525408     0.26600
C338        C  0.25099959  0.30418531  0.96750693    -0.20600
C339        C  0.23788370  0.31399698  0.94737446    -0.10200
C340        C  0.21075546  0.29321454  0.93456675    -0.10700
C341        C  0.19696259  0.26236413  0.94259727    -0.03700
C342        C  0.21017056  0.25251118  0.96275556    -0.18800
H343        H  0.24953185  0.16281253  0.55800413     0.10300
H344        H  0.22698749  0.17972611  0.52242219     0.10400
H345        H  0.30253997  0.27085874  0.52742598     0.10000
H346        H  0.32492843  0.25408405  0.56333327     0.11100
H347        H  0.23152212  0.21743690  0.98756170     0.11200
H348        H  0.26862792  0.28241869  0.51010994     0.13100
H349        H  0.27193538  0.32077716  0.97691986     0.09700
H350        H  0.24913122  0.33795693  0.94181625     0.11700
H351        H  0.17598274  0.24578598  0.93326817     0.08400
H352        H  0.19851951  0.22871355  0.96869063     0.11100
C353        C  0.29495048  0.21180421  0.68735364    -0.03500
C354        C  0.31480120  0.23906454  0.70091503    -0.06100
C355        C  0.30435064  0.25168806  0.72079575    -0.21200
C356        C  0.27377745  0.23767572  0.72745201     0.24500
C357        C  0.25392655  0.20999331  0.71439803    -0.18700
C358        C  0.26442223  0.19722979  0.69457759    -0.08700
C359        C  0.26385329  0.25240707  0.74850727    -0.19000
C360        C  0.23563061  0.24806876  0.75015072    -0.23800
C361        C  0.22571797  0.26297427  0.77109399     0.26600
C362        C  0.19495532  0.24990570  0.77673874    -0.20600
C363        C  0.18452845  0.26261291  0.79657908    -0.10200
C364        C  0.20461584  0.28901485  0.81112226    -0.10700
C365        C  0.23534589  0.30270614  0.80489447    -0.03700
C366        C  0.24580448  0.28988804  0.78510980    -0.18800
H367        H  0.33848984  0.25085844  0.69604437     0.10300
H368        H  0.32019745  0.27280938  0.73072623     0.10400
H369        H  0.23036079  0.19788275  0.71958685     0.10000
H370        H  0.24854360  0.17609978  0.68470469     0.11900
H371        H  0.28086555  0.26791093  0.76274073     0.11200
H372        H  0.21869919  0.23257749  0.73582626     0.13100
H373        H  0.17891370  0.22943892  0.76605456     0.09700
H374        H  0.16067232  0.25155647  0.80065625     0.11700
H375        H  0.25141533  0.32315145  0.81556530     0.08400
H376        H  0.26956821  0.30140029  0.78077921     0.11100
Fe377      Fe  0.14087742  0.85531345  0.37539845     1.65800
Fe378      Fe  0.20806756  0.85598963  0.37279741     1.73200
Fe379      Fe  0.14265514  0.78793941  0.37399299     1.54400
O380        O  0.11589837  0.78469661  0.40676018    -0.82000
O381        O  0.21139299  0.82702770  0.34409465    -0.80300
O382        O  0.10957855  0.82550577  0.40329886    -0.84500
O383        O  0.11441876  0.83134665  0.34271415    -0.79300
O384        O  0.17229530  0.78512754  0.40207519    -0.81100
O385        O  0.20848110  0.88285525  0.34044015    -0.83900
C386        C  0.10320391  0.80380337  0.33495268     0.96900
C387        C  0.10336045  0.80000617  0.41418998     1.04300
O388        O  0.16386324  0.83302689  0.37409484    -1.12800
O389        O  0.21127230  0.88839575  0.40143272    -0.75300
O390        O  0.16525073  0.88158290  0.40818702    -0.78800
O391        O  0.11039112  0.78506077  0.34586212    -0.79400
C392        C  0.19300360  0.89450672  0.41405468     0.95800
O393        O  0.16843385  0.88857477  0.34759286    -0.77400
O394        O  0.21229738  0.83146617  0.40488036    -0.82600
C395        C  0.19358271  0.80136080  0.33331323     0.98400
C396        C  0.19754066  0.80384278  0.41262217     1.04400
O397        O  0.16666927  0.78543881  0.34117832    -0.78200
C398        C  0.19260439  0.89538398  0.33490348     1.02700
Fe399      Fe  0.35871985  0.64524864  0.12359550     1.65800
Fe400      Fe  0.29153748  0.64464557  0.12596391     1.73200
Fe401      Fe  0.35699641  0.71266962  0.12454746     1.54400
O402        O  0.38923482  0.71569669  0.15279374    -0.82000
O403        O  0.28733217  0.66909719  0.09378144    -0.80300
O404        O  0.38525819  0.66944961  0.15611597    -0.84500
O405        O  0.38994618  0.67477402  0.09555872    -0.79300
O406        O  0.33288905  0.71534378  0.15724550    -0.81100
O407        O  0.28834634  0.61220345  0.09741320    -0.83900
C408        C  0.39623765  0.70022748  0.08454238     0.96900
C409        C  0.39646161  0.69701728  0.16377675     1.04300
O410        O  0.33575475  0.66757778  0.12466793    -1.12800
O411        O  0.29108540  0.61788249  0.15845606    -0.75300
O412        O  0.33128479  0.61234120  0.15165689    -0.78800
O413        O  0.38379805  0.71567466  0.09186207    -0.79400
C414        C  0.30712190  0.60561027  0.16430832     0.95800
O415        O  0.33429755  0.61871170  0.09094826    -0.77400
O416        O  0.28821415  0.67365995  0.15456317    -0.82600
C417        C  0.30216090  0.69664260  0.08583185     0.98400
C418        C  0.30599816  0.69940891  0.16520313     1.04400
O419        O  0.32744204  0.71537948  0.09629673    -0.78200
C420        C  0.30658975  0.60595279  0.08493182     1.02700
C421        C  0.41925391  0.71264361  0.06258070    -0.03500
C422        C  0.42441054  0.73902121  0.04791928    -0.06100
C423        C  0.44650023  0.75117588  0.02764528    -0.21200
C424        C  0.46426587  0.73757331  0.02174016     0.24500
C425        C  0.45894256  0.71095204  0.03616916    -0.18700
C426        C  0.43670406  0.69867473  0.05637654    -0.08700
C427        C  0.48746943  0.75150816  0.99996318    -0.19000
C428        C  0.01176840  0.74756232  0.49837293    -0.23800
C429        C  0.03505003  0.76173917  0.47669434     0.26600
C430        C  0.05269043  0.74809642  0.47042902    -0.20600
C431        C  0.07489853  0.76057727  0.45027822    -0.10200
C432        C  0.08029346  0.78731596  0.43610444    -0.10700
C433        C  0.06298585  0.80132846  0.44270427    -0.03700
C434        C  0.04063672  0.78873188  0.46278974    -0.18800
H435        H  0.41135163  0.75033956  0.05207833     0.10300
H436        H  0.44993767  0.77152174  0.01670766     0.10400
H437        H  0.47145483  0.69917389  0.03169352     0.10000
H438        H  0.43326975  0.67827950  0.06721015     0.11100
H439        H  0.98447202  0.76599934  0.98503348     0.11200
H440        H  0.51478191  0.73303480  0.51324568     0.13100
H441        H  0.04906457  0.72748016  0.48098316     0.09700
H442        H  0.08784155  0.74920644  0.44581239     0.11700
H443        H  0.06661551  0.82200476  0.43227555     0.08400
H444        H  0.02824505  0.80055070  0.46760593     0.11100
C445        C  0.08055444  0.79329389  0.31253337    -0.03500
C446        C  0.07508392  0.81447070  0.29796106    -0.06100
C447        C  0.05294592  0.80470829  0.27756651    -0.21200
C448        C  0.03550987  0.77358319  0.27146789     0.24500
C449        C  0.04139629  0.75236285  0.28552571    -0.18700
C450        C  0.06370562  0.76215694  0.30586846    -0.08700
C451        C  0.51190546  0.76437982  0.24995207    -0.19000
C452        C  0.48740572  0.73660678  0.24910103    -0.23800
C453        C  0.46391247  0.72736886  0.22748244     0.26600
C454        C  0.44677080  0.69626961  0.22117346    -0.20600
C455        C  0.42476083  0.68647894  0.20066539    -0.10200
C456        C  0.41910760  0.70759388  0.18619657    -0.10700
C457        C  0.43570769  0.73870608  0.19302412    -0.03700
C458        C  0.45789739  0.74853098  0.21348402    -0.18800
H459        H  0.08782222  0.83867340  0.30238027     0.10300
H460        H  0.04909998  0.82151528  0.26681075     0.10400
H461        H  0.02916425  0.72827264  0.28071383     0.10000
H462        H  0.06753768  0.74530536  0.31654561     0.11100
H463        H  0.51470254  0.78143514  0.23468779     0.11200
H464        H  0.98459273  0.71953723  0.26435269     0.13100
H465        H  0.45074914  0.67951071  0.23185763     0.09700
H466        H  0.41224396  0.66229659  0.19610072     0.11700
H467        H  0.43174272  0.75550637  0.18241520     0.08400
H468        H  0.46993645  0.77259353  0.21844549     0.11100
C469        C  0.29699904  0.58214497  0.18636500    -0.03500
C470        C  0.31242538  0.56574464  0.19160605    -0.06100
C471        C  0.30188151  0.54244103  0.21131227    -0.21200
C472        C  0.27560875  0.53482390  0.22610465     0.24500
C473        C  0.26078748  0.55199731  0.22164363    -0.18700
C474        C  0.27131367  0.57529637  0.20192818    -0.08700
C475        C  0.26470084  0.50914310  0.24614243    -0.19000
C476        C  0.23586838  0.99304913  0.25421028    -0.23800
C477        C  0.22490620  0.96728264  0.27414486     0.26600
C478        C  0.19873336  0.95976710  0.28906606    -0.20600
C479        C  0.18794234  0.93613778  0.30845893    -0.10200
C480        C  0.20300387  0.91928939  0.31322827    -0.10700
C481        C  0.22867866  0.92616499  0.29762690    -0.03700
C482        C  0.23946479  0.94980583  0.27824276    -0.18800
H483        H  0.33240891  0.57054466  0.18015743     0.10300
H484        H  0.31397195  0.52988084  0.21461394     0.10400
H485        H  0.24119404  0.54776213  0.23340434     0.10000
H486        H  0.25917339  0.58781799  0.19876437     0.11100
H487        H  0.28108295  0.00302330  0.25396465     0.11200
H488        H  0.21947291  0.49914982  0.24640021     0.13100
H489        H  0.18687639  0.97260697  0.28606102     0.09700
H490        H  0.16803220  0.93139455  0.32000348     0.11700
H491        H  0.24058782  0.91336590  0.30047835     0.08400
H492        H  0.25900464  0.95402826  0.26639592     0.11100
C493        C  0.29521669  0.58250706  0.06283146    -0.03500
C494        C  0.31520354  0.57627257  0.04792251    -0.06100
C495        C  0.30460998  0.55348972  0.02780296    -0.21200
C496        C  0.27379730  0.53613794  0.02214495     0.24500
C497        C  0.25374959  0.54268331  0.03670780    -0.18700
C498        C  0.26437394  0.56556863  0.05684288    -0.08700
C499        C  0.26387021  0.51210168  0.50049270    -0.19000
C500        C  0.23565012  0.98868520  0.49818979    -0.23800
C501        C  0.22575795  0.96460840  0.47658761     0.26600
C502        C  0.19497958  0.94742806  0.47073299    -0.20600
C503        C  0.18440929  0.92453836  0.45071946    -0.10200
C504        C  0.20437923  0.91802155  0.43610554    -0.10700
C505        C  0.23519204  0.93480322  0.44228730    -0.03700
C506        C  0.24579478  0.95779744  0.46232932    -0.18800
H507        H  0.33912508  0.58890449  0.05186691     0.10300
H508        H  0.32060387  0.54918873  0.01678481     0.10400
H509        H  0.22992411  0.53062410  0.03247756     0.10000
H510        H  0.24836945  0.56987896  0.06781045     0.11100
H511        H  0.28084739  0.51379797  0.48618517     0.11200
H512        H  0.21864773  0.98698027  0.51246561     0.13100
H513        H  0.17899620  0.95194020  0.48151897     0.09700
H514        H  0.16051481  0.91206156  0.44660938     0.11700
H515        H  0.25118303  0.93027745  0.43155311     0.08400
H516        H  0.26958520  0.96973068  0.46675002     0.11100
C517        C  0.28901578  0.70713139  0.06369539    -0.03500
C518        C  0.26133315  0.68651606  0.05163994    -0.06100
C519        C  0.24836406  0.69616742  0.03123316    -0.21200
C520        C  0.26248856  0.72668054  0.02247991     0.24500
C521        C  0.29042165  0.74735266  0.03420788    -0.18700
C522        C  0.30349565  0.73765682  0.05463746    -0.08700
C523        C  0.24760511  0.73558896  0.50062418    -0.19000
C524        C  0.25258022  0.76435079  0.49693797    -0.23800
C525        C  0.23757366  0.77336018  0.47525399     0.26600
C526        C  0.25099980  0.80418528  0.46750685    -0.20600
C527        C  0.23788392  0.81399703  0.44737446    -0.10200
C528        C  0.21075567  0.79321463  0.43456673    -0.10700
C529        C  0.19696282  0.76236421  0.44259715    -0.03700
C530        C  0.21017071  0.75251120  0.46275544    -0.18800
H531        H  0.24953170  0.66281237  0.05800418     0.10300
H532        H  0.22698731  0.67972599  0.02242227     0.10400
H533        H  0.30254003  0.77085851  0.02742584     0.10000
H534        H  0.32492851  0.75408375  0.06333299     0.11100
H535        H  0.23152166  0.71743669  0.48756199     0.11200
H536        H  0.26862841  0.78241862  0.01010956     0.13100
H537        H  0.27193565  0.82077711  0.47691979     0.09700
H538        H  0.24913144  0.83795700  0.44181633     0.11700
H539        H  0.17598297  0.74578607  0.43326796     0.08400
H540        H  0.19851960  0.72871355  0.46869047     0.11100
C541        C  0.29495024  0.71180413  0.18735351    -0.03500
C542        C  0.31480094  0.73906456  0.20091478    -0.06100
C543        C  0.30435045  0.75168804  0.22079559    -0.21200
C544        C  0.27377736  0.73767553  0.22745214     0.24500
C545        C  0.25392641  0.70999308  0.21439821    -0.18700
C546        C  0.26442203  0.69722964  0.19457762    -0.08700
C547        C  0.26385326  0.75240676  0.24850754    -0.19000
C548        C  0.23563083  0.74806916  0.25015053    -0.23800
C549        C  0.22571818  0.76297446  0.27109394     0.26600
C550        C  0.19495557  0.74990582  0.27673881    -0.20600
C551        C  0.18452873  0.76261290  0.29657925    -0.10200
C552        C  0.20461611  0.78901489  0.31112241    -0.10700
C553        C  0.23534614  0.80270629  0.30489447    -0.03700
C554        C  0.24580471  0.78988825  0.28510973    -0.18800
H555        H  0.33848954  0.75085859  0.19604395     0.10300
H556        H  0.32019726  0.77280947  0.23072593     0.10400
H557        H  0.23036068  0.69788248  0.21958725     0.10000
H558        H  0.24854338  0.67609958  0.18470475     0.11900
H559        H  0.28086541  0.76791009  0.26274149     0.11200
H560        H  0.21869957  0.73257846  0.23582555     0.13100
H561        H  0.17891392  0.72943899  0.26605459     0.09700
H562        H  0.16067258  0.75155637  0.30065650     0.11700
H563        H  0.25141560  0.82315170  0.31556518     0.08400
H564        H  0.26956842  0.80140056  0.28077897     0.11100
Fe565      Fe  0.14087741  0.85531342  0.87539847     1.65800
Fe566      Fe  0.20806755  0.85598960  0.87279739     1.73200
Fe567      Fe  0.14265513  0.78793935  0.87399300     1.54400
O568        O  0.11589836  0.78469658  0.90676018    -0.82000
O569        O  0.21139297  0.82702774  0.84409455    -0.80300
O570        O  0.10957857  0.82550576  0.90329888    -0.84500
O571        O  0.11441873  0.83134665  0.84271418    -0.79300
O572        O  0.17229525  0.78512744  0.90207523    -0.81100
O573        O  0.20848111  0.88285531  0.84044021    -0.83900
C574        C  0.10320395  0.80380342  0.83495266     0.96900
C575        C  0.10336048  0.80000618  0.91419002     1.04300
O576        O  0.16386323  0.83302684  0.87409486    -1.12800
O577        O  0.21127225  0.88839565  0.90143279    -0.75300
O578        O  0.16525071  0.88158292  0.90818701    -0.78800
O579        O  0.11039121  0.78506082  0.84586208    -0.79400
C580        C  0.19300356  0.89450668  0.91405471     0.95800
O581        O  0.16843380  0.88857472  0.84759285    -0.77400
O582        O  0.21229738  0.83146606  0.90488026    -0.82600
C583        C  0.19358270  0.80136076  0.83331322     0.98400
C584        C  0.19754064  0.80384270  0.91262214     1.04400
O585        O  0.16666931  0.78543873  0.84117839    -0.78200
C586        C  0.19260437  0.89538397  0.83490349     1.02700
Fe587      Fe  0.35871985  0.64524864  0.62359553     1.65800
Fe588      Fe  0.29153746  0.64464556  0.62596393     1.73200
Fe589      Fe  0.35699640  0.71266962  0.62454748     1.54400
O590        O  0.38923482  0.71569673  0.65279379    -0.82000
O591        O  0.28733214  0.66909718  0.59378147    -0.80300
O592        O  0.38525819  0.66944964  0.65611599    -0.84500
O593        O  0.38994621  0.67477403  0.59555874    -0.79300
O594        O  0.33288904  0.71534377  0.65724549    -0.81100
O595        O  0.28834636  0.61220346  0.59741321    -0.83900
C596        C  0.39623767  0.70022750  0.58454242     0.96900
C597        C  0.39646163  0.69701731  0.66377677     1.04300
O598        O  0.33575475  0.66757778  0.62466795    -1.12800
O599        O  0.29108536  0.61788244  0.65845609    -0.75300
O600        O  0.33128476  0.61234117  0.65165692    -0.78800
O601        O  0.38379806  0.71567466  0.59186211    -0.79400
C602        C  0.30712187  0.60561023  0.66430836     0.95800
O603        O  0.33429757  0.61871171  0.59094826    -0.77400
O604        O  0.28821412  0.67365993  0.65456319    -0.82600
C605        C  0.30216086  0.69664260  0.58583189     0.98400
C606        C  0.30599814  0.69940890  0.66520312     1.04400
O607        O  0.32744202  0.71537947  0.59629675    -0.78200
C608        C  0.30658976  0.60595278  0.58493183     1.02700
C609        C  0.41925392  0.71264365  0.56258073    -0.03500
C610        C  0.42441058  0.73902128  0.54791933    -0.06100
C611        C  0.44650026  0.75117594  0.52764533    -0.21200
C612        C  0.46426586  0.73757335  0.52174019     0.24500
C613        C  0.45894252  0.71095205  0.53616917    -0.18700
C614        C  0.43670402  0.69867474  0.55637652    -0.08700
C615        C  0.48746935  0.75150810  0.49996313    -0.19000
C616        C  0.01176838  0.74756229  0.99837292    -0.23800
C617        C  0.03505006  0.76173915  0.97669438     0.26600
C618        C  0.05269047  0.74809644  0.97042903    -0.20600
C619        C  0.07489862  0.76057734  0.95027830    -0.10200
C620        C  0.08029354  0.78731600  0.93610450    -0.10700
C621        C  0.06298586  0.80132845  0.94270428    -0.03700
C622        C  0.04063674  0.78873189  0.96278977    -0.18800
H623        H  0.41135165  0.75033963  0.55207836     0.10300
H624        H  0.44993770  0.77152180  0.51670766     0.10400
H625        H  0.47145474  0.69917385  0.53169346     0.10000
H626        H  0.43326963  0.67827943  0.56721009     0.11100
H627        H  0.98447200  0.76599934  0.48503350     0.11200
H628        H  0.51478195  0.73303482  0.01324571     0.13100
H629        H  0.04906459  0.72748010  0.98098313     0.09700
H630        H  0.08784172  0.74920654  0.94581250     0.11700
H631        H  0.06661546  0.82200470  0.93227550     0.08400
H632        H  0.02824508  0.80055067  0.96760595     0.11100
C633        C  0.08055449  0.79329387  0.81253335    -0.03500
C634        C  0.07508402  0.81447071  0.79796102    -0.06100
C635        C  0.05294598  0.80470828  0.77756647    -0.21200
C636        C  0.03550988  0.77358318  0.77146792     0.24500
C637        C  0.04139625  0.75236280  0.78552576    -0.18700
C638        C  0.06370563  0.76215695  0.80586848    -0.08700
C639        C  0.51190542  0.76437982  0.74995212    -0.19000
C640        C  0.48740575  0.73660677  0.74910100    -0.23800
C641        C  0.46391251  0.72736885  0.72748241     0.26600
C642        C  0.44677079  0.69626960  0.72117347    -0.20600
C643        C  0.42476086  0.68647894  0.70066537    -0.10200
C644        C  0.41910764  0.70759391  0.68619656    -0.10700
C645        C  0.43570773  0.73870611  0.69302412    -0.03700
C646        C  0.45789746  0.74853098  0.71348399    -0.18800
H647        H  0.08782230  0.83867335  0.80238022     0.10300
H648        H  0.04910012  0.82151529  0.76681073     0.10400
H649        H  0.02916421  0.72827265  0.78071395     0.10000
H650        H  0.06753765  0.74530533  0.81654571     0.11100
H651        H  0.51470247  0.78143520  0.73468788     0.11200
H652        H  0.98459273  0.71953720  0.76435262     0.13100
H653        H  0.45074909  0.67951067  0.73185767     0.09700
H654        H  0.41224399  0.66229661  0.69610069     0.11700
H655        H  0.43174272  0.75550640  0.68241528     0.08400
H656        H  0.46993652  0.77259354  0.71844545     0.11100
C657        C  0.29699899  0.58214492  0.68636502    -0.03500
C658        C  0.31242535  0.56574460  0.69160606    -0.06100
C659        C  0.30188148  0.54244098  0.71131225    -0.21200
C660        C  0.27560873  0.53482384  0.72610462     0.24500
C661        C  0.26078744  0.55199724  0.72164364    -0.18700
C662        C  0.27131361  0.57529630  0.70192819    -0.08700
C663        C  0.26470082  0.50914303  0.74614233    -0.19000
C664        C  0.23586835  0.99304916  0.75421025    -0.23800
C665        C  0.22490618  0.96728263  0.77414481     0.26600
C666        C  0.19873334  0.95976711  0.78906602    -0.20600
C667        C  0.18794231  0.93613777  0.80845891    -0.10200
C668        C  0.20300383  0.91928937  0.81322824    -0.10700
C669        C  0.22867862  0.92616497  0.79762686    -0.03700
C670        C  0.23946476  0.94980582  0.77824274    -0.18800
H671        H  0.33240888  0.57054464  0.68015747     0.10300
H672        H  0.31397194  0.52988080  0.71461392     0.10400
H673        H  0.24119401  0.54776206  0.73340435     0.10000
H674        H  0.25917332  0.58781791  0.69876440     0.11100
H675        H  0.28108288  0.00302322  0.75396453     0.11200
H676        H  0.21947298  0.49915000  0.74640032     0.13100
H677        H  0.18687642  0.97260699  0.78606101     0.09700
H678        H  0.16803221  0.93139456  0.82000349     0.11700
H679        H  0.24058780  0.91336590  0.80047831     0.08400
H680        H  0.25900465  0.95402823  0.76639591     0.11100
C681        C  0.29521667  0.58250700  0.56283151    -0.03500
C682        C  0.31520350  0.57627250  0.54792254    -0.06100
C683        C  0.30460993  0.55348965  0.52780298    -0.21200
C684        C  0.27379724  0.53613788  0.52214500     0.24500
C685        C  0.25374955  0.54268326  0.53670785    -0.18700
C686        C  0.26437391  0.56556859  0.55684293    -0.08700
C687        C  0.26387027  0.51210171  0.00049264    -0.19000
C688        C  0.23565013  0.98868526  0.99818978    -0.23800
C689        C  0.22575793  0.96460840  0.97658763     0.26600
C690        C  0.19497954  0.94742801  0.97073303    -0.20600
C691        C  0.18440926  0.92453831  0.95071951    -0.10200
C692        C  0.20437919  0.91802149  0.93610559    -0.10700
C693        C  0.23519201  0.93480319  0.94228734    -0.03700
C694        C  0.24579474  0.95779745  0.96232933    -0.18800
H695        H  0.33912505  0.58890440  0.55186691     0.10300
H696        H  0.32060380  0.54918868  0.51678481     0.10400
H697        H  0.22992406  0.53062408  0.53247760     0.10000
H698        H  0.24836943  0.56987894  0.56781045     0.11100
H699        H  0.28084745  0.51379803  0.98618512     0.11200
H700        H  0.21864775  0.98698035  0.01246559     0.13100
H701        H  0.17899615  0.95194015  0.98151898     0.09700
H702        H  0.16051478  0.91206151  0.94660942     0.11700
H703        H  0.25118300  0.93027741  0.93155317     0.08400
H704        H  0.26958520  0.96973075  0.96674999     0.11100
C705        C  0.28901575  0.70713137  0.56369543    -0.03500
C706        C  0.26133313  0.68651606  0.55163997    -0.06100
C707        C  0.24836403  0.69616740  0.53123319    -0.21200
C708        C  0.26248852  0.72668053  0.52247994     0.24500
C709        C  0.29042161  0.74735265  0.53420790    -0.18700
C710        C  0.30349562  0.73765681  0.55463748    -0.08700
C711        C  0.24760516  0.73558897  0.00062415    -0.19000
C712        C  0.25258028  0.76435080  0.99693793    -0.23800
C713        C  0.23757369  0.77336023  0.97525402     0.26600
C714        C  0.25099980  0.80418531  0.96750685    -0.20600
C715        C  0.23788392  0.81399706  0.94737448    -0.10200
C716        C  0.21075566  0.79321462  0.93456674    -0.10700
C717        C  0.19696284  0.76236424  0.94259720    -0.03700
C718        C  0.21017071  0.75251123  0.96275550    -0.18800
H719        H  0.24953166  0.66281233  0.55800421     0.10300
H720        H  0.22698729  0.67972598  0.52242228     0.10400
H721        H  0.30253999  0.77085849  0.52742584     0.10000
H722        H  0.32492849  0.75408374  0.56333299     0.11100
H723        H  0.23152167  0.71743666  0.98756200     0.11200
H724        H  0.26862830  0.78241859  0.51010960     0.13100
H725        H  0.27193573  0.82077717  0.97691974     0.09700
H726        H  0.24913144  0.83795700  0.94181631     0.11700
H727        H  0.17598297  0.74578605  0.93326801     0.08400
H728        H  0.19851962  0.72871360  0.96869054     0.11100
C729        C  0.29495028  0.71180420  0.68735347    -0.03500
C730        C  0.31480100  0.73906459  0.70091475    -0.06100
C731        C  0.30435053  0.75168804  0.72079564    -0.21200
C732        C  0.27377740  0.73767558  0.72745210     0.24500
C733        C  0.25392644  0.70999317  0.71439813    -0.18700
C734        C  0.26442207  0.69722972  0.69457756    -0.08700
C735        C  0.26385326  0.75240679  0.74850750    -0.19000
C736        C  0.23563081  0.74806912  0.75015051    -0.23800
C737        C  0.22571819  0.76297447  0.77109392     0.26600
C738        C  0.19495558  0.74990582  0.77673879    -0.20600
C739        C  0.18452873  0.76261285  0.79657929    -0.10200
C740        C  0.20461612  0.78901486  0.81112242    -0.10700
C741        C  0.23534615  0.80270625  0.80489451    -0.03700
C742        C  0.24580473  0.78988825  0.78510974    -0.18800
H743        H  0.33848960  0.75085858  0.69604390     0.10300
H744        H  0.32019734  0.77280941  0.73072606     0.10400
H745        H  0.23036074  0.69788264  0.71958712     0.10000
H746        H  0.24854345  0.67609967  0.68470469     0.11900
H747        H  0.28086539  0.76791012  0.76274143     0.11200
H748        H  0.21869952  0.73257839  0.73582560     0.13100
H749        H  0.17891393  0.72943901  0.76605456     0.09700
H750        H  0.16067263  0.75155632  0.80065656     0.11700
H751        H  0.25141558  0.82315166  0.81556525     0.08400
H752        H  0.26956843  0.80140054  0.78077901     0.11100
Fe753      Fe  0.64087731  0.35531345  0.37539858     1.65800
Fe754      Fe  0.70806738  0.35598951  0.37279718     1.73200
Fe755      Fe  0.64265490  0.28793935  0.37399311     1.54400
O756        O  0.61589854  0.28469667  0.40676054    -0.82000
O757        O  0.71139246  0.32702745  0.34409423    -0.80300
O758        O  0.60957822  0.32550550  0.40329872    -0.84500
O759        O  0.61441875  0.33134690  0.34271413    -0.79300
O760        O  0.67229534  0.28512739  0.40207500    -0.81100
O761        O  0.70848086  0.38285523  0.34044002    -0.83900
C762        C  0.60320351  0.30380344  0.33495305     0.96900
C763        C  0.60336031  0.30000604  0.41419004     1.04300
O764        O  0.66386306  0.33302683  0.37409484    -1.12800
O765        O  0.71127223  0.38839561  0.40143273    -0.75300
O766        O  0.66525061  0.38158255  0.40818731    -0.78800
O767        O  0.61039053  0.28506080  0.34586273    -0.79400
C768        C  0.69300349  0.39450639  0.41405491     0.95800
O769        O  0.66843389  0.38857506  0.34759326    -0.77400
O770        O  0.71229738  0.33146604  0.40488001    -0.82600
C771        C  0.69358196  0.30136059  0.33331282     0.98400
C772        C  0.69754074  0.30384268  0.41262189     1.04400
O773        O  0.66666859  0.28543869  0.34117810    -0.78200
C774        C  0.69260427  0.39538416  0.33490363     1.02700
Fe775      Fe  0.85871975  0.14524832  0.12359560     1.65800
Fe776      Fe  0.79153766  0.14464560  0.12596373     1.73200
Fe777      Fe  0.85699652  0.21266946  0.12454760     1.54400
O778        O  0.88923498  0.21569639  0.15279364    -0.82000
O779        O  0.78733271  0.16909699  0.09378079    -0.80300
O780        O  0.88525762  0.16944905  0.15611639    -0.84500
O781        O  0.88994636  0.17477388  0.09555904    -0.79300
O782        O  0.83288938  0.21534362  0.15724590    -0.81100
O783        O  0.78834655  0.11220305  0.09741355    -0.83900
C784        C  0.89623759  0.20022718  0.08454249     0.96900
C785        C  0.89646130  0.19701679  0.16377699     1.04300
O786        O  0.83575484  0.16757764  0.12466792    -1.12800
O787        O  0.79108552  0.11788292  0.15845628    -0.75300
O788        O  0.83128432  0.11234068  0.15165667    -0.78800
O789        O  0.88379785  0.21567429  0.09186204    -0.79400
C790        C  0.80712167  0.10561022  0.16430833     0.95800
O791        O  0.83429776  0.11871154  0.09094812    -0.77400
O792        O  0.78821420  0.17366031  0.15456250    -0.82600
C793        C  0.80216124  0.19664262  0.08583170     0.98400
C794        C  0.80599825  0.19940898  0.16520296     1.04400
O795        O  0.82744207  0.21537955  0.09629709    -0.78200
C796        C  0.80658987  0.10595240  0.08493201     1.02700
C797        C  0.91925375  0.21264330  0.06258073    -0.03500
C798        C  0.92441004  0.23902065  0.04791909    -0.06100
C799        C  0.94649997  0.25117563  0.02764535    -0.21200
C800        C  0.96426614  0.23757355  0.02174058     0.24500
C801        C  0.95894306  0.21095243  0.03616973    -0.18700
C802        C  0.93670437  0.19867483  0.05637690    -0.08700
C803        C  0.98746992  0.25150875  0.99996380    -0.19000
C804        C  0.51176803  0.24756201  0.49837264    -0.23800
C805        C  0.53504955  0.26173873  0.47669402     0.26600
C806        C  0.55268945  0.24809560  0.47042824    -0.20600
C807        C  0.57489763  0.26057654  0.45027756    -0.10200
C808        C  0.58029316  0.28731573  0.43610434    -0.10700
C809        C  0.56298592  0.30132853  0.44270455    -0.03700
C810        C  0.54063667  0.28873187  0.46278991    -0.18800
H811        H  0.91135072  0.25033866  0.05207786     0.10300
H812        H  0.94993720  0.27152140  0.01670764     0.10400
H813        H  0.97145568  0.19917454  0.03169437     0.10000
H814        H  0.93327029  0.17827978  0.06721064     0.11100
H815        H  0.48447140  0.26599855  0.98503265     0.11200
H816        H  0.01478182  0.23303432  0.51324538     0.13100
H817        H  0.54906316  0.22747895  0.48098199     0.09700
H818        H  0.58784030  0.24920539  0.44581135     0.11700
H819        H  0.56661598  0.32200523  0.43227622     0.08400
H820        H  0.52824535  0.30055089  0.46760650     0.11100
C821        C  0.58055390  0.29329373  0.31253386    -0.03500
C822        C  0.57508403  0.31447052  0.29796079    -0.06100
C823        C  0.55294617  0.30470801  0.27756611    -0.21200
C824        C  0.53550955  0.27358282  0.27146813     0.24500
C825        C  0.54139517  0.25236240  0.28552684    -0.18700
C826        C  0.56370439  0.26215662  0.30586973    -0.08700
C827        C  0.01190514  0.26438055  0.24995241    -0.19000
C828        C  0.98740647  0.23660670  0.24910036    -0.23800
C829        C  0.96391254  0.22736865  0.22748234     0.26600
C830        C  0.94677040  0.19626928  0.22117384    -0.20600
C831        C  0.92476012  0.18647845  0.20066603    -0.10200
C832        C  0.91910711  0.20759339  0.18619693    -0.10700
C833        C  0.93570731  0.23870562  0.19302428    -0.03700
C834        C  0.95789725  0.24853064  0.21348395    -0.18800
H835        H  0.58782279  0.33867332  0.30237946     0.10300
H836        H  0.54910082  0.32151504  0.26680974     0.10400
H837        H  0.52916264  0.22827208  0.28071558     0.10000
H838        H  0.56753584  0.24530502  0.31654758     0.11100
H839        H  0.01470096  0.28143656  0.23468941     0.11200
H840        H  0.48459184  0.21953715  0.26435301     0.13100
H841        H  0.95074865  0.17951038  0.23185815     0.09700
H842        H  0.91224300  0.16229608  0.19610166     0.11700
H843        H  0.93174232  0.25550586  0.18241532     0.08400
H844        H  0.96993631  0.27259325  0.21844514     0.11100
C845        C  0.79699860  0.08214486  0.18636495    -0.03500
C846        C  0.81242479  0.06574433  0.19160593    -0.06100
C847        C  0.80188064  0.04244051  0.21131194    -0.21200
C848        C  0.77560788  0.03482342  0.22610425     0.24500
C849        C  0.76078671  0.05199697  0.22164327    -0.18700
C850        C  0.77131315  0.07529619  0.20192798    -0.08700
C851        C  0.76469985  0.00914260  0.24614198    -0.19000
C852        C  0.73586767  0.49304913  0.25421024    -0.23800
C853        C  0.72490564  0.46728270  0.27414489     0.26600
C854        C  0.69873333  0.45976773  0.28906676    -0.20600
C855        C  0.68794244  0.43613844  0.30845969    -0.10200
C856        C  0.70300361  0.41928959  0.31322843    -0.10700
C857        C  0.72867786  0.42616464  0.29762641    -0.03700
C858        C  0.73946382  0.44980543  0.27824222    -0.18800
H859        H  0.83240833  0.07054436  0.18015741     0.10300
H860        H  0.81397096  0.02988013  0.21461353     0.10400
H861        H  0.74119324  0.04776176  0.23340386     0.10000
H862        H  0.75917291  0.08781791  0.19876416     0.11100
H863        H  0.78108204  0.50302278  0.25396412     0.11200
H864        H  0.71947201  0.99914969  0.24640018     0.13100
H865        H  0.68687669  0.47260797  0.28606218     0.09700
H866        H  0.66803274  0.43139561  0.32000472     0.11700
H867        H  0.74058667  0.41336516  0.30047738     0.08400
H868        H  0.75900325  0.45402742  0.26639482     0.11100
C869        C  0.79521652  0.08250660  0.06283169    -0.03500
C870        C  0.81520323  0.07627285  0.04792167    -0.06100
C871        C  0.80460941  0.05349035  0.02780178    -0.21200
C872        C  0.77379660  0.03613814  0.02214453     0.24500
C873        C  0.75374896  0.04268263  0.03670858    -0.18700
C874        C  0.76437362  0.06556766  0.05684394    -0.08700
C875        C  0.76386934  0.01210224  0.50049195    -0.19000
C876        C  0.73564970  0.48868499  0.49818999    -0.23800
C877        C  0.72575753  0.46460805  0.47658794     0.26600
C878        C  0.69497914  0.44742725  0.47073361    -0.20600
C879        C  0.68440894  0.42453751  0.45072011    -0.10200
C880        C  0.70437902  0.41802106  0.43610594    -0.10700
C881        C  0.73519185  0.43480313  0.44228750    -0.03700
C882        C  0.74579448  0.45779743  0.46232944    -0.18800
H883        H  0.83912490  0.08890519  0.05186538     0.10300
H884        H  0.82060322  0.04918999  0.01678272     0.10400
H885        H  0.72992338  0.03062305  0.03247902     0.10000
H886        H  0.74836921  0.06987743  0.06781233     0.11100
H887        H  0.78084630  0.01379901  0.48618386     0.11200
H888        H  0.71864749  0.48697965  0.51246622     0.13100
H889        H  0.67899564  0.45193913  0.48151975     0.09700
H890        H  0.66051445  0.41206043  0.44661020     0.11700
H891        H  0.75118297  0.43027770  0.43155310     0.08400
H892        H  0.76958497  0.46973110  0.46674991     0.11100
C893        C  0.78901630  0.20713164  0.06369522    -0.03500
C894        C  0.76133436  0.18651613  0.05163876    -0.06100
C895        C  0.74836536  0.19616769  0.03123202    -0.21200
C896        C  0.76248926  0.22668115  0.02247976     0.24500
C897        C  0.79042171  0.24735347  0.03420871    -0.18700
C898        C  0.80349560  0.23765745  0.05463829    -0.08700
C899        C  0.74760594  0.23558969  0.50062396    -0.19000
C900        C  0.75258049  0.26435137  0.49693814    -0.23800
C901        C  0.73757395  0.27336065  0.47525404     0.26600
C902        C  0.75100011  0.30418566  0.46750663    -0.20600
C903        C  0.73788422  0.31399722  0.44737408    -0.10200
C904        C  0.71075588  0.29321472  0.43456650    -0.10700
C905        C  0.69696298  0.26236442  0.44259727    -0.03700
C906        C  0.71017092  0.25251156  0.46275567    -0.18800
H907        H  0.74953338  0.16281214  0.05800213     0.10300
H908        H  0.72698912  0.17972610  0.02242035     0.10400
H909        H  0.80253966  0.27085960  0.02742747     0.10000
H910        H  0.82492795  0.25408456  0.06333458     0.11100
H911        H  0.73152303  0.21743754  0.48756130     0.11200
H912        H  0.76862802  0.28241914  0.01011011     0.13100
H913        H  0.77193601  0.32077757  0.47691946     0.09700
H914        H  0.74913177  0.33795711  0.44181571     0.11700
H915        H  0.67598304  0.24578621  0.43326826     0.08400
H916        H  0.69851983  0.22871401  0.46869095     0.11100
C917        C  0.79494999  0.21180394  0.18735328    -0.03500
C918        C  0.81480073  0.23906327  0.20091601    -0.06100
C919        C  0.80434989  0.25168643  0.22079687    -0.21200
C920        C  0.77377642  0.23767468  0.22745199     0.24500
C921        C  0.75392543  0.20999323  0.21439659    -0.18700
C922        C  0.76442141  0.19723018  0.19457596    -0.08700
C923        C  0.76385199  0.25240573  0.24850738    -0.19000
C924        C  0.73562944  0.24806786  0.25015047    -0.23800
C925        C  0.72571681  0.26297342  0.27109369     0.26600
C926        C  0.69495429  0.24990449  0.27673915    -0.20600
C927        C  0.68452759  0.26261190  0.29657946    -0.10200
C928        C  0.70461506  0.28901453  0.31112183    -0.10700
C929        C  0.73534492  0.30270625  0.30489319    -0.03700
C930        C  0.74580335  0.28988787  0.28510861    -0.18800
H931        H  0.83848961  0.25085665  0.19604632     0.10300
H932        H  0.82019675  0.27280700  0.23072834     0.10400
H933        H  0.73035944  0.19788310  0.21958443     0.10000
H934        H  0.74854269  0.17610092  0.18470191     0.11900
H935        H  0.78086403  0.26790914  0.26274134     0.11200
H936        H  0.71869807  0.23257695  0.23582576     0.13100
H937        H  0.67891260  0.22943717  0.26605555     0.09700
H938        H  0.66067159  0.25155510  0.30065727     0.11700
H939        H  0.75141440  0.32315213  0.31556326     0.08400
H940        H  0.76956688  0.30140037  0.28077731     0.11100
Fe941      Fe  0.64087730  0.35531345  0.87539855     1.65800
Fe942      Fe  0.70806740  0.35598958  0.87279717     1.73200
Fe943      Fe  0.64265492  0.28793940  0.87399311     1.54400
O944        O  0.61589852  0.28469671  0.90676053    -0.82000
O945        O  0.71139246  0.32702757  0.84409417    -0.80300
O946        O  0.60957826  0.32550556  0.90329876    -0.84500
O947        O  0.61441872  0.33134683  0.84271410    -0.79300
O948        O  0.67229536  0.28512752  0.90207502    -0.81100
O949        O  0.70848084  0.38285525  0.84044002    -0.83900
C950        C  0.60320349  0.30380339  0.83495302     0.96900
C951        C  0.60336033  0.30000608  0.91419008     1.04300
O952        O  0.66386308  0.33302688  0.87409485    -1.12800
O953        O  0.71127224  0.38839569  0.90143271    -0.75300
O954        O  0.66525061  0.38158263  0.90818727    -0.78800
O955        O  0.61039054  0.28506075  0.84586268    -0.79400
C956        C  0.69300350  0.39450646  0.91405488     0.95800
O957        O  0.66843380  0.38857497  0.84759318    -0.77400
O958        O  0.71229744  0.33146615  0.90488002    -0.82600
C959        C  0.69358199  0.30136067  0.83331280     0.98400
C960        C  0.69754077  0.30384279  0.91262190     1.04400
O961        O  0.66666865  0.28543873  0.84117815    -0.78200
C962        C  0.69260422  0.39538412  0.83490361     1.02700
Fe963      Fe  0.85871977  0.14524839  0.62359562     1.65800
Fe964      Fe  0.79153766  0.14464565  0.62596376     1.73200
Fe965      Fe  0.85699651  0.21266949  0.62454762     1.54400
O966        O  0.88923495  0.21569640  0.65279369    -0.82000
O967        O  0.78733267  0.16909699  0.59378082    -0.80300
O968        O  0.88525763  0.16944906  0.65611642    -0.84500
O969        O  0.88994644  0.17477389  0.59555908    -0.79300
O970        O  0.83288942  0.21534374  0.65724590    -0.81100
O971        O  0.78834656  0.11220311  0.59741356    -0.83900
C972        C  0.89623760  0.20022717  0.58454250     0.96900
C973        C  0.89646128  0.19701680  0.66377703     1.04300
O974        O  0.83575484  0.16757770  0.62466795    -1.12800
O975        O  0.79108552  0.11788296  0.65845631    -0.75300
O976        O  0.83128433  0.11234076  0.65165668    -0.78800
O977        O  0.88379781  0.21567421  0.59186205    -0.79400
C978        C  0.80712166  0.10561025  0.66430831     0.95800
O979        O  0.83429779  0.11871165  0.59094813    -0.77400
O980        O  0.78821425  0.17366040  0.65456251    -0.82600
C981        C  0.80216122  0.19664261  0.58583172     0.98400
C982        C  0.80599829  0.19940906  0.66520297     1.04400
O983        O  0.82744206  0.21537955  0.59629710    -0.78200
C984        C  0.80658989  0.10595249  0.58493201     1.02700
C985        C  0.91925377  0.21264334  0.56258075    -0.03500
C986        C  0.92441008  0.23902072  0.54791912    -0.06100
C987        C  0.94649999  0.25117569  0.52764538    -0.21200
C988        C  0.96426613  0.23757361  0.52174056     0.24500
C989        C  0.95894303  0.21095245  0.53616969    -0.18700
C990        C  0.93670437  0.19867489  0.55637686    -0.08700
C991        C  0.98746993  0.25150877  0.49996378    -0.19000
C992        C  0.51176805  0.24756209  0.99837267    -0.23800
C993        C  0.53504954  0.26173876  0.97669402     0.26600
C994        C  0.55268941  0.24809561  0.97042823    -0.20600
C995        C  0.57489765  0.26057657  0.95027759    -0.10200
C996        C  0.58029320  0.28731579  0.93610439    -0.10700
C997        C  0.56298597  0.30132859  0.94270460    -0.03700
C998        C  0.54063672  0.28873192  0.96278992    -0.18800
H999        H  0.91135074  0.25033873  0.55207792     0.10300
H1000       H  0.94993723  0.27152151  0.51670766     0.10400
H1001       H  0.97145563  0.19917454  0.53169433     0.10000
H1002       H  0.93327031  0.17827978  0.56721061     0.11100
H1003       H  0.48447136  0.26599845  0.48503260     0.11200
H1004       H  0.01478185  0.23303437  0.01324542     0.13100
H1005       H  0.54906309  0.22747892  0.98098196     0.09700
H1006       H  0.58784030  0.24920543  0.94581140     0.11700
H1007       H  0.56661606  0.32200530  0.93227627     0.08400
H1008       H  0.52824541  0.30055097  0.96760653     0.11100
C1009       C  0.58055384  0.29329366  0.81253387    -0.03500
C1010       C  0.57508400  0.31447051  0.79796082    -0.06100
C1011       C  0.55294615  0.30470800  0.77756614    -0.21200
C1012       C  0.53550953  0.27358282  0.77146815     0.24500
C1013       C  0.54139512  0.25236238  0.78552685    -0.18700
C1014       C  0.56370432  0.26215657  0.80586973    -0.08700
C1015       C  0.01190510  0.26438059  0.74995242    -0.19000
C1016       C  0.98740653  0.23660670  0.74910030    -0.23800
C1017       C  0.96391255  0.22736864  0.72748233     0.26600
C1018       C  0.94677045  0.19626929  0.72117380    -0.20600
C1019       C  0.92476014  0.18647846  0.70066604    -0.10200
C1020       C  0.91910708  0.20759338  0.68619697    -0.10700
C1021       C  0.93570729  0.23870561  0.69302432    -0.03700
C1022       C  0.95789721  0.24853063  0.71348398    -0.18800
H1023       H  0.58782276  0.33867325  0.80237950     0.10300
H1024       H  0.54910083  0.32151508  0.76680977     0.10400
H1025       H  0.52916257  0.22827207  0.78071557     0.10000
H1026       H  0.56753576  0.24530492  0.81654757     0.11100
H1027       H  0.01470081  0.28143667  0.73468948     0.11200
H1028       H  0.48459181  0.21953714  0.76435300     0.13100
H1029       H  0.95074878  0.17951039  0.73185804     0.09700
H1030       H  0.91224300  0.16229604  0.69610165     0.11700
H1031       H  0.93174229  0.25550586  0.68241535     0.08400
H1032       H  0.96993627  0.27259324  0.71844519     0.11100
C1033       C  0.79699854  0.08214481  0.68636487    -0.03500
C1034       C  0.81242482  0.06574440  0.69160593    -0.06100
C1035       C  0.80188068  0.04244058  0.71131196    -0.21200
C1036       C  0.77560787  0.03482344  0.72610423     0.24500
C1037       C  0.76078667  0.05199694  0.72164319    -0.18700
C1038       C  0.77131304  0.07529609  0.70192785    -0.08700
C1039       C  0.76469984  0.00914258  0.74614194    -0.19000
C1040       C  0.73586766  0.49304907  0.75421025    -0.23800
C1041       C  0.72490561  0.46728263  0.77414490     0.26600
C1042       C  0.69873331  0.45976769  0.78906676    -0.20600
C1043       C  0.68794242  0.43613842  0.80845972    -0.10200
C1044       C  0.70300358  0.41928956  0.81322845    -0.10700
C1045       C  0.72867782  0.42616458  0.79762644    -0.03700
C1046       C  0.73946380  0.44980537  0.77824224    -0.18800
H1047       H  0.83240843  0.07054451  0.68015749     0.10300
H1048       H  0.81397103  0.02988027  0.71461357     0.10400
H1049       H  0.74119318  0.04776173  0.73340378     0.10000
H1050       H  0.75917274  0.08781774  0.69876399     0.11100
H1051       H  0.78108205  0.50302273  0.75396413     0.11200
H1052       H  0.71947204  0.99914981  0.74640034     0.13100
H1053       H  0.68687669  0.47260793  0.78606219     0.09700
H1054       H  0.66803271  0.43139560  0.82000475     0.11700
H1055       H  0.74058663  0.41336510  0.80047739     0.08400
H1056       H  0.75900321  0.45402735  0.76639489     0.11100
C1057       C  0.79521657  0.08250666  0.56283171    -0.03500
C1058       C  0.81520327  0.07627290  0.54792172    -0.06100
C1059       C  0.80460948  0.05349041  0.52780179    -0.21200
C1060       C  0.77379664  0.03613817  0.52214455     0.24500
C1061       C  0.75374903  0.04268263  0.53670862    -0.18700
C1062       C  0.76437363  0.06556765  0.55684401    -0.08700
C1063       C  0.76386932  0.01210228  0.00049189    -0.19000
C1064       C  0.73564964  0.48868495  0.99819007    -0.23800
C1065       C  0.72575751  0.46460807  0.97658797     0.26600
C1066       C  0.69497911  0.44742727  0.97073361    -0.20600
C1067       C  0.68440896  0.42453753  0.95072014    -0.10200
C1068       C  0.70437903  0.41802113  0.93610593    -0.10700
C1069       C  0.73519188  0.43480322  0.94228749    -0.03700
C1070       C  0.74579446  0.45779748  0.96232947    -0.18800
H1071       H  0.83912495  0.08890521  0.55186549     0.10300
H1072       H  0.82060326  0.04919007  0.51678276     0.10400
H1073       H  0.72992340  0.03062301  0.53247906     0.10000
H1074       H  0.74836925  0.06987736  0.56781239     0.11100
H1075       H  0.78084623  0.01379908  0.98618375     0.11200
H1076       H  0.71864746  0.48697955  0.01246632     0.13100
H1077       H  0.67899560  0.45193915  0.98151972     0.09700
H1078       H  0.66051444  0.41206040  0.94661027     0.11700
H1079       H  0.75118299  0.43027780  0.93155313     0.08400
H1080       H  0.76958499  0.46973115  0.96674997     0.11100
C1081       C  0.78901627  0.20713162  0.56369524    -0.03500
C1082       C  0.76133432  0.18651613  0.55163879    -0.06100
C1083       C  0.74836533  0.19616769  0.53123206    -0.21200
C1084       C  0.76248924  0.22668115  0.52247978     0.24500
C1085       C  0.79042170  0.24735347  0.53420873    -0.18700
C1086       C  0.80349559  0.23765744  0.55463832    -0.08700
C1087       C  0.74760594  0.23558969  0.00062394    -0.19000
C1088       C  0.75258046  0.26435138  0.99693815    -0.23800
C1089       C  0.73757393  0.27336066  0.97525403     0.26600
C1090       C  0.75100008  0.30418568  0.96750666    -0.20600
C1091       C  0.73788421  0.31399726  0.94737409    -0.10200
C1092       C  0.71075589  0.29321478  0.93456648    -0.10700
C1093       C  0.69696301  0.26236445  0.94259719    -0.03700
C1094       C  0.71017094  0.25251158  0.96275558    -0.18800
H1095       H  0.74953332  0.16281214  0.55800218     0.10300
H1096       H  0.72698907  0.17972611  0.52242040     0.10400
H1097       H  0.80253966  0.27085960  0.52742749     0.10000
H1098       H  0.82492792  0.25408452  0.56333461     0.11100
H1099       H  0.73152308  0.21743758  0.98756127     0.11200
H1100       H  0.76862811  0.28241914  0.51011009     0.13100
H1101       H  0.77193594  0.32077758  0.97691952     0.09700
H1102       H  0.74913178  0.33795716  0.94181574     0.11700
H1103       H  0.67598306  0.24578624  0.93326816     0.08400
H1104       H  0.69851987  0.22871401  0.96869082     0.11100
C1105       C  0.79495005  0.21180398  0.68735331    -0.03500
C1106       C  0.81480075  0.23906334  0.70091602    -0.06100
C1107       C  0.80434987  0.25168644  0.72079687    -0.21200
C1108       C  0.77377639  0.23767469  0.72745194     0.24500
C1109       C  0.75392542  0.20999326  0.71439649    -0.18700
C1110       C  0.76442145  0.19723016  0.69457597    -0.08700
C1111       C  0.76385194  0.25240573  0.74850733    -0.19000
C1112       C  0.73562938  0.24806782  0.75015047    -0.23800
C1113       C  0.72571680  0.26297346  0.77109367     0.26600
C1114       C  0.69495428  0.24990456  0.77673914    -0.20600
C1115       C  0.68452762  0.26261201  0.79657946    -0.10200
C1116       C  0.70461510  0.28901463  0.81112181    -0.10700
C1117       C  0.73534495  0.30270633  0.80489315    -0.03700
C1118       C  0.74580336  0.28988793  0.78510857    -0.18800
H1119       H  0.83848965  0.25085677  0.69604634     0.10300
H1120       H  0.82019672  0.27280704  0.73072837     0.10400
H1121       H  0.73035938  0.19788318  0.71958418     0.10000
H1122       H  0.74854279  0.17610091  0.68470194     0.11900
H1123       H  0.78086400  0.26790920  0.76274123     0.11200
H1124       H  0.71869797  0.23257683  0.73582581     0.13100
H1125       H  0.67891258  0.22943728  0.76605559     0.09700
H1126       H  0.66067162  0.25155523  0.80065728     0.11700
H1127       H  0.75141447  0.32315221  0.81556323     0.08400
H1128       H  0.76956691  0.30140042  0.78077729     0.11100
Fe1129     Fe  0.64087724  0.85531340  0.37539854     1.65800
Fe1130     Fe  0.70806744  0.85598966  0.37279727     1.73200
Fe1131     Fe  0.64265501  0.78793943  0.37399320     1.54400
O1132       O  0.61589856  0.78469672  0.40676054    -0.82000
O1133       O  0.71139262  0.82702774  0.34409425    -0.80300
O1134       O  0.60957824  0.82550552  0.40329874    -0.84500
O1135       O  0.61441857  0.83134666  0.34271419    -0.79300
O1136       O  0.67229540  0.78512768  0.40207526    -0.81100
O1137       O  0.70848092  0.88285541  0.34044018    -0.83900
C1138       C  0.60320340  0.80380321  0.33495311     0.96900
C1139       C  0.60336031  0.80000605  0.41419004     1.04300
O1140       O  0.66386309  0.83302689  0.37409488    -1.12800
O1141       O  0.71127218  0.88839563  0.40143284    -0.75300
O1142       O  0.66525054  0.88158263  0.40818721    -0.78800
O1143       O  0.61039063  0.78506066  0.34586265    -0.79400
C1144       C  0.69300340  0.89450642  0.41405490     0.95800
O1145       O  0.66843371  0.88857491  0.34759312    -0.77400
O1146       O  0.71229759  0.83146624  0.40488004    -0.82600
C1147       C  0.69358223  0.80136077  0.33331297     0.98400
C1148       C  0.69754089  0.80384293  0.41262201     1.04400
O1149       O  0.66666889  0.78543877  0.34117836    -0.78200
C1150       C  0.69260421  0.89538417  0.33490365     1.02700
Fe1151     Fe  0.85871983  0.64524840  0.12359566     1.65800
Fe1152     Fe  0.79153764  0.64464560  0.12596381     1.73200
Fe1153     Fe  0.85699647  0.71266947  0.12454771     1.54400
O1154       O  0.88923490  0.71569636  0.15279383    -0.82000
O1155       O  0.78733264  0.66909692  0.09378088    -0.80300
O1156       O  0.88525783  0.66944911  0.15611641    -0.84500
O1157       O  0.88994643  0.67477396  0.09555908    -0.79300
O1158       O  0.83288928  0.71534366  0.15724597    -0.81100
O1159       O  0.78834656  0.61220311  0.09741360    -0.83900
C1160       C  0.89623765  0.70022727  0.08454256     0.96900
C1161       C  0.89646135  0.69701682  0.16377711     1.04300
O1162       O  0.83575485  0.66757767  0.12466805    -1.12800
O1163       O  0.79108553  0.61788290  0.15845633    -0.75300
O1164       O  0.83128442  0.61234079  0.15165678    -0.78800
O1165       O  0.88379787  0.71567433  0.09186214    -0.79400
C1166       C  0.80712171  0.60561025  0.16430837     0.95800
O1167       O  0.83429779  0.61871166  0.09094815    -0.77400
O1168       O  0.78821409  0.67366034  0.15456253    -0.82600
C1169       C  0.80216117  0.69664254  0.08583177     0.98400
C1170       C  0.80599810  0.69940901  0.16520297     1.04400
O1171       O  0.82744200  0.71537947  0.09629716    -0.78200
C1172       C  0.80658991  0.60595253  0.08493201     1.02700
C1173       C  0.91925385  0.71264344  0.06258082    -0.03500
C1174       C  0.92441030  0.73902090  0.04791931    -0.06100
C1175       C  0.94650018  0.75117583  0.02764551    -0.21200
C1176       C  0.96426613  0.73757355  0.02174057     0.24500
C1177       C  0.95894286  0.71095227  0.03616955    -0.18700
C1178       C  0.93670422  0.69867475  0.05637678    -0.08700
C1179       C  0.98746990  0.75150870  0.99996374    -0.19000
C1180       C  0.51176811  0.74756216  0.49837274    -0.23800
C1181       C  0.53504963  0.76173886  0.47669410     0.26600
C1182       C  0.55268957  0.74809575  0.47042838    -0.20600
C1183       C  0.57489770  0.76057662  0.45027764    -0.10200
C1184       C  0.58029314  0.78731572  0.43610432    -0.10700
C1185       C  0.56298586  0.80132850  0.44270446    -0.03700
C1186       C  0.54063668  0.78873190  0.46278989    -0.18800
H1187       H  0.91135110  0.75033903  0.05207820     0.10300
H1188       H  0.94993751  0.77152165  0.01670787     0.10400
H1189       H  0.97145527  0.69917422  0.03169403     0.10000
H1190       H  0.93326997  0.67827956  0.06721039     0.11100
H1191       H  0.48447126  0.76599824  0.98503246     0.11200
H1192       H  0.01478186  0.73303440  0.51324541     0.13100
H1193       H  0.54906333  0.72747917  0.48098220     0.09700
H1194       H  0.58784039  0.74920548  0.44581150     0.11700
H1195       H  0.56661587  0.82200508  0.43227603     0.08400
H1196       H  0.52824527  0.80055088  0.46760643     0.11100
C1197       C  0.58055362  0.79329343  0.31253406    -0.03500
C1198       C  0.57508372  0.81447026  0.29796105    -0.06100
C1199       C  0.55294595  0.80470776  0.27756629    -0.21200
C1200       C  0.53550943  0.77358260  0.27146824     0.24500
C1201       C  0.54139496  0.75236214  0.28552699    -0.18700
C1202       C  0.56370415  0.76215634  0.30586990    -0.08700
C1203       C  0.01190533  0.76438038  0.24995226    -0.19000
C1204       C  0.98740629  0.73660683  0.24910070    -0.23800
C1205       C  0.96391246  0.72736870  0.22748261     0.26600
C1206       C  0.94677048  0.69626935  0.22117399    -0.20600
C1207       C  0.92476032  0.68647855  0.20066609    -0.10200
C1208       C  0.91910714  0.70759341  0.18619708    -0.10700
C1209       C  0.93570728  0.73870565  0.19302449    -0.03700
C1210       C  0.95789718  0.74853068  0.21348418    -0.18800
H1211       H  0.58782245  0.83867300  0.30237975     0.10300
H1212       H  0.54910066  0.82151482  0.26680985     0.10400
H1213       H  0.52916244  0.72827184  0.28071562     0.10000
H1214       H  0.56753567  0.74530473  0.31654769     0.11100
H1215       H  0.01470149  0.78143618  0.23468881     0.11200
H1216       H  0.48459117  0.71953754  0.26435373     0.13100
H1217       H  0.95074881  0.67951047  0.23185823     0.09700
H1218       H  0.91224334  0.66229613  0.19610158     0.11700
H1219       H  0.93174226  0.75550588  0.18241553     0.08400
H1220       H  0.96993629  0.77259331  0.21844541     0.11100
C1221       C  0.79699860  0.58214486  0.18636496    -0.03500
C1222       C  0.81242491  0.56574451  0.19160610    -0.06100
C1223       C  0.80188082  0.54244075  0.21131219    -0.21200
C1224       C  0.77560798  0.53482361  0.22610440     0.24500
C1225       C  0.76078670  0.55199702  0.22164329    -0.18700
C1226       C  0.77131307  0.57529616  0.20192791    -0.08700
C1227       C  0.76469997  0.50914278  0.24614210    -0.19000
C1228       C  0.73586756  0.99304904  0.25421020    -0.23800
C1229       C  0.72490555  0.96728264  0.27414485     0.26600
C1230       C  0.69873335  0.95976780  0.28906684    -0.20600
C1231       C  0.68794251  0.93613859  0.30845983    -0.10200
C1232       C  0.70300358  0.91928961  0.31322847    -0.10700
C1233       C  0.72867774  0.92616455  0.29762634    -0.03700
C1234       C  0.73946366  0.94980528  0.27824212    -0.18800
H1235       H  0.83240853  0.57054461  0.18015769     0.10300
H1236       H  0.81397119  0.52988051  0.21461387     0.10400
H1237       H  0.74119316  0.54776175  0.23340380     0.10000
H1238       H  0.75917276  0.58781776  0.19876399     0.11100
H1239       H  0.78108189  0.00302254  0.25396397     0.11200
H1240       H  0.71947211  0.49914973  0.24640016     0.13100
H1241       H  0.68687676  0.97260811  0.28606230     0.09700
H1242       H  0.66803289  0.93139587  0.32000497     0.11700
H1243       H  0.74058649  0.91336499  0.30047722     0.08400
H1244       H  0.75900299  0.95402715  0.26639462     0.11100
C1245       C  0.79521661  0.58250678  0.06283164    -0.03500
C1246       C  0.81520333  0.57627319  0.04792148    -0.06100
C1247       C  0.80460952  0.55349068  0.02780157    -0.21200
C1248       C  0.77379666  0.53613822  0.02214454     0.24500
C1249       C  0.75374905  0.54268259  0.03670870    -0.18700
C1250       C  0.76437367  0.56556769  0.05684401    -0.08700
C1251       C  0.76386938  0.51210223  0.50049197    -0.19000
C1252       C  0.73564956  0.98868524  0.49818968    -0.23800
C1253       C  0.72575741  0.96460826  0.47658768     0.26600
C1254       C  0.69497897  0.94742716  0.47073362    -0.20600
C1255       C  0.68440876  0.92453728  0.45072026    -0.10200
C1256       C  0.70437889  0.91802107  0.43610591    -0.10700
C1257       C  0.73519175  0.93480334  0.44228726    -0.03700
C1258       C  0.74579439  0.95779777  0.46232908    -0.18800
H1259       H  0.83912502  0.58890566  0.05186506     0.10300
H1260       H  0.82060334  0.54919048  0.01678240     0.10400
H1261       H  0.72992338  0.53062280  0.03247929     0.10000
H1262       H  0.74836927  0.56987737  0.06781244     0.11100
H1263       H  0.78084622  0.51379915  0.48618365     0.11200
H1264       H  0.71864722  0.98698006  0.51246570     0.13100
H1265       H  0.67899543  0.95193889  0.48151986     0.09700
H1266       H  0.66051425  0.91205996  0.44661059     0.11700
H1267       H  0.75118287  0.93027799  0.43155283     0.08400
H1268       H  0.76958491  0.96973156  0.46674932     0.11100
C1269       C  0.78901623  0.70713154  0.06369528    -0.03500
C1270       C  0.76133431  0.68651606  0.05163880    -0.06100
C1271       C  0.74836532  0.69616764  0.03123206    -0.21200
C1272       C  0.76248931  0.72668112  0.02247978     0.24500
C1273       C  0.79042175  0.74735339  0.03420873    -0.18700
C1274       C  0.80349559  0.73765735  0.05463835    -0.08700
C1275       C  0.74760595  0.73558966  0.50062398    -0.19000
C1276       C  0.75258090  0.76435145  0.49693787    -0.23800
C1277       C  0.73757434  0.77336081  0.47525384     0.26600
C1278       C  0.75100045  0.80418585  0.46750651    -0.20600
C1279       C  0.73788448  0.81399744  0.44737405    -0.10200
C1280       C  0.71075609  0.79321495  0.43456654    -0.10700
C1281       C  0.69696324  0.76236463  0.44259724    -0.03700
C1282       C  0.71017128  0.75251175  0.46275550    -0.18800
H1283       H  0.74953332  0.66281206  0.05800217     0.10300
H1284       H  0.72698910  0.67972611  0.02242041     0.10400
H1285       H  0.80253979  0.77085953  0.02742749     0.10000
H1286       H  0.82492790  0.75408442  0.06333468     0.11100
H1287       H  0.73152277  0.71743747  0.48756154     0.11200
H1288       H  0.76862894  0.78241931  0.01010947     0.13100
H1289       H  0.77193635  0.82077776  0.47691932     0.09700
H1290       H  0.74913198  0.83795734  0.44181571     0.11700
H1291       H  0.67598323  0.74578644  0.43326833     0.08400
H1292       H  0.69852019  0.72871420  0.46869073     0.11100
C1293       C  0.79494981  0.71180399  0.18735326    -0.03500
C1294       C  0.81480047  0.73906333  0.20091599    -0.06100
C1295       C  0.80434964  0.75168631  0.22079700    -0.21200
C1296       C  0.77377618  0.73767442  0.22745216     0.24500
C1297       C  0.75392520  0.70999304  0.21439670    -0.18700
C1298       C  0.76442122  0.69723003  0.19457603    -0.08700
C1299       C  0.76385174  0.75240523  0.24850774    -0.19000
C1300       C  0.73562943  0.74806806  0.25015032    -0.23800
C1301       C  0.72571692  0.76297363  0.27109362     0.26600
C1302       C  0.69495444  0.74990473  0.27673916    -0.20600
C1303       C  0.68452785  0.76261213  0.29657957    -0.10200
C1304       C  0.70461535  0.78901470  0.31112199    -0.10700
C1305       C  0.73534521  0.80270639  0.30489328    -0.03700
C1306       C  0.74580354  0.78988804  0.28510855    -0.18800
H1307       H  0.83848937  0.75085683  0.19604624     0.10300
H1308       H  0.82019644  0.77280683  0.23072857     0.10400
H1309       H  0.73035922  0.69788289  0.21958455     0.10000
H1310       H  0.74854262  0.67610076  0.18470207     0.11900
H1311       H  0.78086359  0.76790800  0.26274220     0.11200
H1312       H  0.71869823  0.73257774  0.23582513     0.13100
H1313       H  0.67891275  0.72943748  0.26605556     0.09700
H1314       H  0.66067185  0.75155535  0.30065741     0.11700
H1315       H  0.75141474  0.82315223  0.31556340     0.08400
H1316       H  0.76956708  0.80140049  0.28077713     0.11100
Fe1317     Fe  0.64087723  0.85531337  0.87539857     1.65800
Fe1318     Fe  0.70806746  0.85598967  0.87279726     1.73200
Fe1319     Fe  0.64265508  0.78793941  0.87399320     1.54400
O1320       O  0.61589856  0.78469671  0.90676052    -0.82000
O1321       O  0.71139269  0.82702775  0.84409428    -0.80300
O1322       O  0.60957820  0.82550551  0.90329874    -0.84500
O1323       O  0.61441857  0.83134666  0.84271422    -0.79300
O1324       O  0.67229550  0.78512764  0.90207522    -0.81100
O1325       O  0.70848088  0.88285538  0.84044015    -0.83900
C1326       C  0.60320346  0.80380324  0.83495311     0.96900
C1327       C  0.60336030  0.80000604  0.91419003     1.04300
O1328       O  0.66386311  0.83302687  0.87409488    -1.12800
O1329       O  0.71127218  0.88839569  0.90143278    -0.75300
O1330       O  0.66525052  0.88158255  0.90818728    -0.78800
O1331       O  0.61039074  0.78506071  0.84586264    -0.79400
C1332       C  0.69300339  0.89450640  0.91405492     0.95800
O1333       O  0.66843368  0.88857489  0.84759316    -0.77400
O1334       O  0.71229761  0.83146627  0.90488007    -0.82600
C1335       C  0.69358230  0.80136079  0.83331298     0.98400
C1336       C  0.69754095  0.80384292  0.91262200     1.04400
O1337       O  0.66666896  0.78543878  0.84117836    -0.78200
C1338       C  0.69260418  0.89538414  0.83490366     1.02700
Fe1339     Fe  0.85871981  0.64524839  0.62359566     1.65800
Fe1340     Fe  0.79153761  0.64464556  0.62596379     1.73200
Fe1341     Fe  0.85699644  0.71266946  0.62454771     1.54400
O1342       O  0.88923490  0.71569639  0.65279383    -0.82000
O1343       O  0.78733260  0.66909689  0.59378085    -0.80300
O1344       O  0.88525776  0.66944911  0.65611643    -0.84500
O1345       O  0.88994644  0.67477396  0.59555914    -0.79300
O1346       O  0.83288922  0.71534365  0.65724596    -0.81100
O1347       O  0.78834656  0.61220306  0.59741360    -0.83900
C1348       C  0.89623762  0.70022724  0.58454258     0.96900
C1349       C  0.89646134  0.69701683  0.66377710     1.04300
O1350       O  0.83575482  0.66757764  0.62466806    -1.12800
O1351       O  0.79108550  0.61788286  0.65845630    -0.75300
O1352       O  0.83128435  0.61234070  0.65165669    -0.78800
O1353       O  0.88379781  0.71567429  0.59186214    -0.79400
C1354       C  0.80712167  0.60561020  0.66430833     0.95800
O1355       O  0.83429781  0.61871168  0.59094812    -0.77400
O1356       O  0.78821406  0.67366028  0.65456252    -0.82600
C1357       C  0.80216116  0.69664250  0.58583172     0.98400
C1358       C  0.80599806  0.69940896  0.66520296     1.04400
O1359       O  0.82744198  0.71537945  0.59629713    -0.78200
C1360       C  0.80658991  0.60595251  0.58493200     1.02700
C1361       C  0.91925381  0.71264338  0.56258083    -0.03500
C1362       C  0.92441027  0.73902084  0.54791933    -0.06100
C1363       C  0.94650016  0.75117580  0.52764554    -0.21200
C1364       C  0.96426616  0.73757355  0.52174061     0.24500
C1365       C  0.95894288  0.71095228  0.53616959    -0.18700
C1366       C  0.93670420  0.69867470  0.55637678    -0.08700
C1367       C  0.98746991  0.75150873  0.49996377    -0.19000
C1368       C  0.51176817  0.74756220  0.99837279    -0.23800
C1369       C  0.53504965  0.76173884  0.97669412     0.26600
C1370       C  0.55268960  0.74809574  0.97042838    -0.20600
C1371       C  0.57489771  0.76057661  0.95027762    -0.10200
C1372       C  0.58029316  0.78731573  0.93610434    -0.10700
C1373       C  0.56298590  0.80132852  0.94270452    -0.03700
C1374       C  0.54063668  0.78873187  0.96278989    -0.18800
H1375       H  0.91135107  0.75033896  0.55207823     0.10300
H1376       H  0.94993747  0.77152159  0.51670792     0.10400
H1377       H  0.97145534  0.69917423  0.53169405     0.10000
H1378       H  0.93326994  0.67827949  0.56721036     0.11100
H1379       H  0.48447114  0.76599814  0.48503240     0.11200
H1380       H  0.01478181  0.73303432  0.01324543     0.13100
H1381       H  0.54906338  0.72747916  0.98098222     0.09700
H1382       H  0.58784038  0.74920546  0.94581143     0.11700
H1383       H  0.56661591  0.82200514  0.93227615     0.08400
H1384       H  0.52824527  0.80055084  0.96760643     0.11100
C1385       C  0.58055367  0.79329344  0.81253406    -0.03500
C1386       C  0.57508373  0.81447026  0.79796108    -0.06100
C1387       C  0.55294593  0.80470775  0.77756633    -0.21200
C1388       C  0.53550942  0.77358260  0.77146827     0.24500
C1389       C  0.54139495  0.75236213  0.78552703    -0.18700
C1390       C  0.56370417  0.76215636  0.80586992    -0.08700
C1391       C  0.01190532  0.76438037  0.74995225    -0.19000
C1392       C  0.98740629  0.73660680  0.74910068    -0.23800
C1393       C  0.96391243  0.72736869  0.72748259     0.26600
C1394       C  0.94677044  0.69626935  0.72117399    -0.20600
C1395       C  0.92476029  0.68647853  0.70066607    -0.10200
C1396       C  0.91910715  0.70759342  0.68619705    -0.10700
C1397       C  0.93570725  0.73870565  0.69302447    -0.03700
C1398       C  0.95789714  0.74853067  0.71348419    -0.18800
H1399       H  0.58782243  0.83867299  0.80237979     0.10300
H1400       H  0.54910062  0.82151479  0.76680990     0.10400
H1401       H  0.52916244  0.72827186  0.78071568     0.10000
H1402       H  0.56753569  0.74530474  0.81654775     0.11100
H1403       H  0.01470147  0.78143614  0.73468884     0.11200
H1404       H  0.48459122  0.71953746  0.76435366     0.13100
H1405       H  0.95074877  0.67951047  0.73185825     0.09700
H1406       H  0.91224331  0.66229613  0.69610158     0.11700
H1407       H  0.93174224  0.75550588  0.68241552     0.08400
H1408       H  0.96993623  0.77259329  0.71844541     0.11100
C1409       C  0.79699863  0.58214486  0.68636497    -0.03500
C1410       C  0.81242488  0.56574442  0.69160602    -0.06100
C1411       C  0.80188082  0.54244072  0.71131214    -0.21200
C1412       C  0.77560799  0.53482356  0.72610439     0.24500
C1413       C  0.76078676  0.55199700  0.72164329    -0.18700
C1414       C  0.77131316  0.57529622  0.70192799    -0.08700
C1415       C  0.76470000  0.50914272  0.74614211    -0.19000
C1416       C  0.73586756  0.99304908  0.75421026    -0.23800
C1417       C  0.72490551  0.96728261  0.77414486     0.26600
C1418       C  0.69873330  0.95976775  0.78906686    -0.20600
C1419       C  0.68794246  0.93613853  0.80845983    -0.10200
C1420       C  0.70300354  0.91928958  0.81322848    -0.10700
C1421       C  0.72867770  0.92616451  0.79762636    -0.03700
C1422       C  0.73946361  0.94980524  0.77824212    -0.18800
H1423       H  0.83240842  0.57054443  0.68015751     0.10300
H1424       H  0.81397122  0.52988045  0.71461385     0.10400
H1425       H  0.74119317  0.54776171  0.73340382     0.10000
H1426       H  0.75917292  0.58781787  0.69876414     0.11100
H1427       H  0.78108184  0.00302246  0.75396383     0.11200
H1428       H  0.71947213  0.49914966  0.74640017     0.13100
H1429       H  0.68687673  0.97260806  0.78606236     0.09700
H1430       H  0.66803284  0.93139582  0.82000498     0.11700
H1431       H  0.74058645  0.91336497  0.80047728     0.08400
H1432       H  0.75900297  0.95402713  0.76639464     0.11100
C1433       C  0.79521658  0.58250675  0.56283164    -0.03500
C1434       C  0.81520331  0.57627317  0.54792149    -0.06100
C1435       C  0.80460951  0.55349064  0.52780161    -0.21200
C1436       C  0.77379667  0.53613819  0.52214454     0.24500
C1437       C  0.75374903  0.54268258  0.53670868    -0.18700
C1438       C  0.76437364  0.56556765  0.55684400    -0.08700
C1439       C  0.76386934  0.51210225  0.00049197    -0.19000
C1440       C  0.73564955  0.98868526  0.99818966    -0.23800
C1441       C  0.72575743  0.96460830  0.97658764     0.26600
C1442       C  0.69497900  0.94742723  0.97073358    -0.20600
C1443       C  0.68440878  0.92453732  0.95072026    -0.10200
C1444       C  0.70437890  0.91802108  0.93610592    -0.10700
C1445       C  0.73519177  0.93480341  0.94228721    -0.03700
C1446       C  0.74579441  0.95779779  0.96232907    -0.18800
H1447       H  0.83912500  0.58890566  0.55186509     0.10300
H1448       H  0.82060334  0.54919044  0.51678243     0.10400
H1449       H  0.72992337  0.53062281  0.53247922     0.10000
H1450       H  0.74836922  0.56987728  0.56781246     0.11100
H1451       H  0.78084609  0.51379922  0.98618360     0.11200
H1452       H  0.71864727  0.98698004  0.01246572     0.13100
H1453       H  0.67899548  0.95193899  0.98151984     0.09700
H1454       H  0.66051426  0.91206000  0.94661058     0.11700
H1455       H  0.75118289  0.93027811  0.93155270     0.08400
H1456       H  0.76958492  0.96973153  0.96674938     0.11100
C1457       C  0.78901624  0.70713148  0.56369520    -0.03500
C1458       C  0.76133431  0.68651597  0.55163872    -0.06100
C1459       C  0.74836527  0.69616756  0.53123207    -0.21200
C1460       C  0.76248919  0.72668104  0.52247981     0.24500
C1461       C  0.79042163  0.74735334  0.53420878    -0.18700
C1462       C  0.80349552  0.73765730  0.55463834    -0.08700
C1463       C  0.74760604  0.73558968  0.00062393    -0.19000
C1464       C  0.75258102  0.76435149  0.99693780    -0.23800
C1465       C  0.73757437  0.77336078  0.97525383     0.26600
C1466       C  0.75100048  0.80418582  0.96750649    -0.20600
C1467       C  0.73788448  0.81399742  0.94737408    -0.10200
C1468       C  0.71075615  0.79321492  0.93456653    -0.10700
C1469       C  0.69696331  0.76236457  0.94259717    -0.03700
C1470       C  0.71017132  0.75251172  0.96275549    -0.18800
H1471       H  0.74953336  0.66281196  0.55800206     0.10300
H1472       H  0.72698900  0.67972597  0.52242045     0.10400
H1473       H  0.80253962  0.77085949  0.52742758     0.10000
H1474       H  0.82492783  0.75408442  0.56333466     0.11100
H1475       H  0.73152282  0.71743750  0.98756155     0.11200
H1476       H  0.76862877  0.78241928  0.51010962     0.13100
H1477       H  0.77193640  0.82077772  0.97691926     0.09700
H1478       H  0.74913197  0.83795733  0.94181578     0.11700
H1479       H  0.67598339  0.74578636  0.93326818     0.08400
H1480       H  0.69852023  0.72871413  0.96869071     0.11100
C1481       C  0.79494975  0.71180391  0.68735325    -0.03500
C1482       C  0.81480044  0.73906332  0.70091588    -0.06100
C1483       C  0.80434965  0.75168636  0.72079686    -0.21200
C1484       C  0.77377622  0.73767448  0.72745211     0.24500
C1485       C  0.75392523  0.70999303  0.71439674    -0.18700
C1486       C  0.76442118  0.69722998  0.69457608    -0.08700
C1487       C  0.76385182  0.75240538  0.74850766    -0.19000
C1488       C  0.73562945  0.74806813  0.75015026    -0.23800
C1489       C  0.72571694  0.76297366  0.77109361     0.26600
C1490       C  0.69495444  0.74990472  0.77673919    -0.20600
C1491       C  0.68452789  0.76261213  0.79657963    -0.10200
C1492       C  0.70461538  0.78901473  0.81112197    -0.10700
C1493       C  0.73534524  0.80270648  0.80489320    -0.03700
C1494       C  0.74580355  0.78988807  0.78510851    -0.18800
H1495       H  0.83848933  0.75085682  0.69604608     0.10300
H1496       H  0.82019651  0.77280698  0.73072831     0.10400
H1497       H  0.73035924  0.69788293  0.71958465     0.10000
H1498       H  0.74854253  0.67610068  0.68470212     0.11900
H1499       H  0.78086367  0.76790816  0.76274203     0.11200
H1500       H  0.71869828  0.73257781  0.73582513     0.13100
H1501       H  0.67891275  0.72943746  0.76605563     0.09700
H1502       H  0.66067186  0.75155530  0.80065753     0.11700
H1503       H  0.75141476  0.82315236  0.81556321     0.08400
H1504       H  0.76956709  0.80140052  0.78077712     0.11100
loop_ 
_geom_bond_atom_site_label_1 
_geom_bond_atom_site_label_2 
_geom_bond_distance 
_geom_bond_site_symmetry_2 
_ccdc_geom_bond_type 
Fe1          O17   2.075       .  S
Fe1           O7   2.048       .  S
Fe1          O14   2.053       .  S
Fe1           O6   2.076       .  S
Fe1          O12   1.972       .  S
Fe2           O5   2.082       .  S
Fe2           O9   2.057       .  S
Fe2          O13   2.086       .  S
Fe2          O18   2.053       .  S
Fe2          O12   1.972       .  S
Fe3          O21   2.057       .  S
Fe3           O8   2.082       .  S
Fe3          O15   2.081       .  S
Fe3           O4   2.057       .  S
Fe3          O12   1.974       .  S
O4           C11   1.267       .  A
O5           C19   1.272       .  A
O6           C11   1.270       .  A
O7           C10   1.268       .  A
O8           C20   1.273       .  A
O9           C22   1.268       .  A
C10          O15   1.273       .  A
C10          C69   1.481       .  S
C11          C56   1.485       .  S
O13          C16   1.273       .  A
O14          C16   1.268       .  A
C16         C128   1.486       .  S
O17          C22   1.271       .  A
O18          C20   1.269       .  A
C19          O21   1.267       .  A
C19         C176   1.487       .  S
C20         C152   1.485       .  S
C22         C104   1.484       .  S
Fe23         O39   2.053       .  S
Fe23         O29   2.074       .  S
Fe23         O36   2.073       .  S
Fe23         O28   2.047       .  S
Fe23         O34   1.972       .  S
Fe24         O27   2.054       .  S
Fe24         O31   2.085       .  S
Fe24         O35   2.058       .  S
Fe24         O40   2.080       .  S
Fe24         O34   1.973       .  S
Fe25         O43   2.082       .  S
Fe25         O30   2.058       .  S
Fe25         O37   2.058       .  S
Fe25         O26   2.081       .  S
Fe25         O34   1.974       .  S
O26          C33   1.273       .  A
O27          C41   1.269       .  A
O28          C33   1.267       .  A
O29          C32   1.270       .  A
O30          C42   1.268       .  A
O31          C44   1.273       .  A
C32          O37   1.268       .  A
C32          C45   1.485       .  S
C33          C80   1.481       .  S
O35          C38   1.268       .  A
O36          C38   1.270       .  A
C38          C93   1.484       .  S
O39          C44   1.268       .  A
O40          C42   1.271       .  A
C41          O43   1.273       .  A
C41         C141   1.485       .  S
C42         C165   1.487       .  S
C44         C117   1.486       .  S
C45          C46   1.406       .  A
C45          C50   1.407       .  A
C46          C47   1.397       .  A
C46          H59   1.083       .  S
C47          C48   1.403       .  A
C47          H60   1.083       .  S
C48          C49   1.408       .  A
C48          C51   1.488   1_554  S
C49          C50   1.400       .  A
C49          H61   1.081       .  S
C50          H62   1.083       .  S
C51         C992   1.348       .  D
C51         H815   1.084       .  S
C52          C53   1.488       .  S
C52         C991   1.348   1_455  D
C52         H816   1.084       .  S
C53          C54   1.403       .  A
C53          C58   1.408       .  A
C54          C55   1.397       .  A
C54          H65   1.083       .  S
C55          C56   1.406       .  A
C55          H66   1.083       .  S
C56          C57   1.406       .  A
C57          C58   1.400       .  A
C57          H67   1.083       .  S
C58          H68   1.081       .  S
H63         C803   1.084       .  S
H64         C804   1.084       .  S
C69          C70   1.407       .  A
C69          C74   1.405       .  A
C70          C71   1.395       .  A
C70          H83   1.083       .  S
C71          C72   1.401       .  A
C71          H84   1.083       .  S
C72          C73   1.408       .  A
C72         C827   1.483       .  S
C73          C74   1.399       .  A
C73          H85   1.081       .  S
C74          H86   1.083       .  S
C75         C824   1.483       .  S
C75          C76   1.345       .  D
C75          H87   1.085       .  S
C76          C77   1.483       .  S
C76         H840   1.084       .  S
C77          C78   1.401       .  A
C77          C82   1.408       .  A
C78          C79   1.395       .  A
C78          H89   1.083       .  S
C79          C80   1.407       .  A
C79          H90   1.083       .  S
C80          C81   1.405       .  A
C81          C82   1.399       .  A
C81          H91   1.083       .  S
C82          H92   1.081       .  S
H88         C828   1.084       .  S
C93          C94   1.406       .  A
C93          C98   1.406       .  A
C94          C95   1.398       .  A
C94         H107   1.083       .  S
C95          C96   1.403       .  A
C95         H108   1.083       .  S
C96          C97   1.408       .  A
C96          C99   1.487       .  S
C97          C98   1.398       .  A
C97         H109   1.081       .  S
C98         H110   1.083       .  S
C99         C476   1.348   1_545  D
C99         H487   1.085       .  S
C100        C101   1.487       .  S
C100        C475   1.348       .  D
C100        H488   1.085       .  S
C101        C102   1.403       .  A
C101        C106   1.407       .  A
C102        C103   1.398       .  A
C102        H113   1.083       .  S
C103        C104   1.406       .  A
C103        H114   1.083       .  S
C104        C105   1.407       .  A
C105        C106   1.398       .  A
C105        H115   1.083       .  S
C106        H116   1.082       .  S
H111        C475   1.085       .  S
H112        C476   1.085       .  S
C117        C118   1.407       .  A
C117        C122   1.406       .  A
C118        C119   1.397       .  A
C118        H131   1.083       .  S
C119        C120   1.403       .  A
C119        H132   1.084       .  S
C120        C121   1.410       .  A
C120        C311   1.491       .  S
C121        C122   1.401       .  A
C121        H133   1.080       .  S
C122        H134   1.083       .  S
C123        C308   1.491       .  S
C123        C500   1.349   1_545  D
C123        H135   1.084       .  S
C124        C125   1.491       .  S
C124        C499   1.349       .  D
C124        H136   1.084       .  S
C125        C126   1.403       .  A
C125        C130   1.410       .  A
C126        C127   1.397       .  A
C126        H137   1.084       .  S
C127        C128   1.407       .  A
C127        H138   1.083       .  S
C128        C129   1.406       .  A
C129        C130   1.401       .  A
C129        H139   1.083       .  S
C130        H140   1.081       .  S
C141        C142   1.407       .  A
C141        C146   1.406       .  A
C142        C143   1.396       .  A
C142        H155   1.083       .  S
C143        C144   1.401       .  A
C143        H156   1.084       .  S
C144        C145   1.409       .  A
C144        C335   1.487       .  S
C145        C146   1.401       .  A
C145        H157   1.081       .  S
C146        H158   1.083       .  S
C147        C332   1.487       .  S
C147        C148   1.347       .  D
C147        H159   1.084       .  S
C148        C149   1.488       .  S
C148        H348   1.085       .  S
C149        C150   1.402       .  A
C149        C154   1.410       .  A
C150        C151   1.396       .  A
C150        H161   1.084       .  S
C151        C152   1.407       .  A
C151        H162   1.083       .  S
C152        C153   1.406       .  A
C153        C154   1.401       .  A
C153        H163   1.083       .  S
C154        H164   1.081       .  S
H160        C336   1.085   1_554  S
C165        C166   1.407       .  A
C165        C170   1.407       .  A
C166        C167   1.398       .  A
C166        H179   1.083       .  S
C167        C168   1.403       .  A
C167        H180   1.083       .  S
C168        C169   1.409       .  A
C168        C171   1.490       .  S
C169        C170   1.402       .  A
C169        H181   1.082       .  S
C170        H182   1.083       .  S
C171        C172   1.349       .  D
C171        H183   1.084       .  S
C172        C173   1.492       .  S
C172        H184   1.085       .  S
C173        C174   1.404       .  A
C173        C178   1.410       .  A
C174        C175   1.398       .  A
C174        H185   1.083       .  S
C175        C176   1.407       .  A
C175        H186   1.083       .  S
C176        C177   1.406       .  A
C177        C178   1.401       .  A
C177        H187   1.083       .  S
C178        H188   1.081       .  S
Fe189       O205   2.075       .  S
Fe189       O195   2.048       .  S
Fe189       O202   2.053       .  S
Fe189       O194   2.076       .  S
Fe189       O200   1.972       .  S
Fe190       O193   2.082       .  S
Fe190       O197   2.057       .  S
Fe190       O201   2.086       .  S
Fe190       O206   2.053       .  S
Fe190       O200   1.972       .  S
Fe191       O209   2.057       .  S
Fe191       O196   2.082       .  S
Fe191       O203   2.081       .  S
Fe191       O192   2.057       .  S
Fe191       O200   1.974       .  S
O192        C199   1.267       .  A
O193        C207   1.272       .  A
O194        C199   1.270       .  A
O195        C198   1.268       .  A
O196        C208   1.273       .  A
O197        C210   1.268       .  A
C198        O203   1.273       .  A
C198        C257   1.481       .  S
C199        C244   1.485       .  S
O201        C204   1.273       .  A
O202        C204   1.268       .  A
C204        C316   1.486       .  S
O205        C210   1.271       .  A
O206        C208   1.269       .  A
C207        O209   1.267       .  A
C207        C364   1.487       .  S
C208        C340   1.485       .  S
C210        C292   1.484       .  S
Fe211       O227   2.053       .  S
Fe211       O217   2.074       .  S
Fe211       O224   2.073       .  S
Fe211       O216   2.047       .  S
Fe211       O222   1.972       .  S
Fe212       O215   2.054       .  S
Fe212       O219   2.085       .  S
Fe212       O223   2.058       .  S
Fe212       O228   2.080       .  S
Fe212       O222   1.973       .  S
Fe213       O231   2.082       .  S
Fe213       O218   2.058       .  S
Fe213       O225   2.058       .  S
Fe213       O214   2.081       .  S
Fe213       O222   1.974       .  S
O214        C221   1.273       .  A
O215        C229   1.269       .  A
O216        C221   1.267       .  A
O217        C220   1.270       .  A
O218        C230   1.268       .  A
O219        C232   1.273       .  A
C220        O225   1.268       .  A
C220        C233   1.485       .  S
C221        C268   1.481       .  S
O223        C226   1.268       .  A
O224        C226   1.270       .  A
C226        C281   1.484       .  S
O227        C232   1.268       .  A
O228        C230   1.271       .  A
C229        O231   1.273       .  A
C229        C329   1.485       .  S
C230        C353   1.487       .  S
C232        C305   1.486       .  S
C233        C234   1.406       .  A
C233        C238   1.407       .  A
C234        C235   1.397       .  A
C234        H247   1.083       .  S
C235        C236   1.403       .  A
C235        H248   1.083       .  S
C236        C237   1.408       .  A
C236        C239   1.488       .  S
C237        C238   1.400       .  A
C237        H249   1.081       .  S
C238        H250   1.083       .  S
C239        C804   1.348       .  D
C239       H1003   1.084       .  S
C240        C241   1.488       .  S
C240        C803   1.348   1_455  D
C240       H1004   1.084   1_556  S
C241        C242   1.403       .  A
C241        C246   1.408       .  A
C242        C243   1.397       .  A
C242        H253   1.083       .  S
C243        C244   1.406       .  A
C243        H254   1.083       .  S
C244        C245   1.406       .  A
C245        C246   1.400       .  A
C245        H255   1.083       .  S
C246        H256   1.081       .  S
H251        C991   1.084       .  S
H252        C992   1.084   1_554  S
C257        C258   1.407       .  A
C257        C262   1.405       .  A
C258        C259   1.395       .  A
C258        H271   1.083       .  S
C259        C260   1.401       .  A
C259        H272   1.083       .  S
C260        C261   1.408       .  A
C260       C1015   1.483       .  S
C261        C262   1.399       .  A
C261        H273   1.081       .  S
C262        H274   1.083       .  S
C263       C1012   1.483       .  S
C263        C264   1.345       .  D
C263        H275   1.085       .  S
C264        C265   1.483       .  S
C264       H1028   1.084       .  S
C265        C266   1.401       .  A
C265        C270   1.408       .  A
C266        C267   1.395       .  A
C266        H277   1.083       .  S
C267        C268   1.407       .  A
C267        H278   1.083       .  S
C268        C269   1.405       .  A
C269        C270   1.399       .  A
C269        H279   1.083       .  S
C270        H280   1.081       .  S
H276       C1016   1.084       .  S
C281        C282   1.406       .  A
C281        C286   1.406       .  A
C282        C283   1.398       .  A
C282        H295   1.083       .  S
C283        C284   1.403       .  A
C283        H296   1.083       .  S
C284        C285   1.408       .  A
C284        C287   1.487       .  S
C285        C286   1.398       .  A
C285        H297   1.081       .  S
C286        H298   1.083       .  S
C287        C664   1.348   1_545  D
C287        H675   1.085       .  S
C288        C289   1.487       .  S
C288        C663   1.348       .  D
C288        H676   1.085       .  S
C289        C290   1.403       .  A
C289        C294   1.407       .  A
C290        C291   1.398       .  A
C290        H301   1.083       .  S
C291        C292   1.406       .  A
C291        H302   1.083       .  S
C292        C293   1.407       .  A
C293        C294   1.398       .  A
C293        H303   1.083       .  S
C294        H304   1.082       .  S
H299        C663   1.085       .  S
H300        C664   1.085       .  S
C305        C306   1.407       .  A
C305        C310   1.406       .  A
C306        C307   1.397       .  A
C306        H319   1.083       .  S
C307        C308   1.403       .  A
C307        H320   1.084       .  S
C308        C309   1.410       .  A
C309        C310   1.401       .  A
C309        H321   1.080       .  S
C310        H322   1.083       .  S
C311        C688   1.349   1_544  D
C311        H323   1.084   1_554  S
C312        C313   1.491       .  S
C312        C687   1.349   1_556  D
C312        H324   1.084   1_556  S
C313        C314   1.403       .  A
C313        C318   1.410       .  A
C314        C315   1.397       .  A
C314        H325   1.084       .  S
C315        C316   1.407       .  A
C315        H326   1.083       .  S
C316        C317   1.406       .  A
C317        C318   1.401       .  A
C317        H327   1.083       .  S
C318        H328   1.081       .  S
C329        C330   1.407       .  A
C329        C334   1.406       .  A
C330        C331   1.396       .  A
C330        H343   1.083       .  S
C331        C332   1.401       .  A
C331        H344   1.084       .  S
C332        C333   1.409       .  A
C333        C334   1.401       .  A
C333        H345   1.081       .  S
C334        H346   1.083       .  S
C335        C336   1.347   1_554  D
C335        H347   1.084   1_554  S
C336        C337   1.488       .  S
C337        C338   1.402       .  A
C337        C342   1.410       .  A
C338        C339   1.396       .  A
C338        H349   1.084       .  S
C339        C340   1.407       .  A
C339        H350   1.083       .  S
C340        C341   1.406       .  A
C341        C342   1.401       .  A
C341        H351   1.083       .  S
C342        H352   1.081       .  S
C353        C354   1.407       .  A
C353        C358   1.407       .  A
C354        C355   1.398       .  A
C354        H367   1.083       .  S
C355        C356   1.403       .  A
C355        H368   1.083       .  S
C356        C357   1.409       .  A
C356        C359   1.490       .  S
C357        C358   1.402       .  A
C357        H369   1.082       .  S
C358        H370   1.083       .  S
C359        C360   1.349       .  D
C359        H371   1.084       .  S
C360        C361   1.492       .  S
C360        H372   1.085       .  S
C361        C362   1.404       .  A
C361        C366   1.410       .  A
C362        C363   1.398       .  A
C362        H373   1.083       .  S
C363        C364   1.407       .  A
C363        H374   1.083       .  S
C364        C365   1.406       .  A
C365        C366   1.401       .  A
C365        H375   1.083       .  S
C366        H376   1.081       .  S
Fe377       O393   2.075       .  S
Fe377       O383   2.048       .  S
Fe377       O390   2.053       .  S
Fe377       O382   2.076       .  S
Fe377       O388   1.972       .  S
Fe378       O381   2.082       .  S
Fe378       O385   2.057       .  S
Fe378       O389   2.086       .  S
Fe378       O394   2.053       .  S
Fe378       O388   1.972       .  S
Fe379       O397   2.057       .  S
Fe379       O384   2.082       .  S
Fe379       O391   2.081       .  S
Fe379       O380   2.057       .  S
Fe379       O388   1.974       .  S
O380        C387   1.267       .  A
O381        C395   1.272       .  A
O382        C387   1.270       .  A
O383        C386   1.268       .  A
O384        C396   1.273       .  A
O385        C398   1.268       .  A
C386        O391   1.273       .  A
C386        C445   1.481       .  S
C387        C432   1.485       .  S
O389        C392   1.273       .  A
O390        C392   1.268       .  A
C392        C504   1.486       .  S
O393        C398   1.271       .  A
O394        C396   1.269       .  A
C395        O397   1.267       .  A
C395        C552   1.487       .  S
C396        C528   1.485       .  S
C398        C480   1.484       .  S
Fe399       O415   2.053       .  S
Fe399       O405   2.074       .  S
Fe399       O412   2.073       .  S
Fe399       O404   2.047       .  S
Fe399       O410   1.972       .  S
Fe400       O403   2.054       .  S
Fe400       O407   2.085       .  S
Fe400       O411   2.058       .  S
Fe400       O416   2.080       .  S
Fe400       O410   1.973       .  S
Fe401       O419   2.082       .  S
Fe401       O406   2.058       .  S
Fe401       O413   2.058       .  S
Fe401       O402   2.081       .  S
Fe401       O410   1.974       .  S
O402        C409   1.273       .  A
O403        C417   1.269       .  A
O404        C409   1.267       .  A
O405        C408   1.270       .  A
O406        C418   1.268       .  A
O407        C420   1.273       .  A
C408        O413   1.268       .  A
C408        C421   1.485       .  S
C409        C456   1.481       .  S
O411        C414   1.268       .  A
O412        C414   1.270       .  A
C414        C469   1.484       .  S
O415        C420   1.268       .  A
O416        C418   1.271       .  A
C417        O419   1.273       .  A
C417        C517   1.485       .  S
C418        C541   1.487       .  S
C420        C493   1.486       .  S
C421        C422   1.406       .  A
C421        C426   1.407       .  A
C422        C423   1.397       .  A
C422        H435   1.083       .  S
C423        C424   1.403       .  A
C423        H436   1.083       .  S
C424        C425   1.408       .  A
C424        C427   1.488   1_554  S
C425        C426   1.400       .  A
C425        H437   1.081       .  S
C426        H438   1.083       .  S
C427       C1368   1.348       .  D
C427       H1191   1.084       .  S
C428        C429   1.488       .  S
C428       C1367   1.348   1_455  D
C428       H1192   1.084       .  S
C429        C430   1.403       .  A
C429        C434   1.408       .  A
C430        C431   1.397       .  A
C430        H441   1.083       .  S
C431        C432   1.406       .  A
C431        H442   1.083       .  S
C432        C433   1.406       .  A
C433        C434   1.400       .  A
C433        H443   1.083       .  S
C434        H444   1.081       .  S
H439       C1179   1.084       .  S
H440       C1180   1.084       .  S
C445        C446   1.407       .  A
C445        C450   1.405       .  A
C446        C447   1.395       .  A
C446        H459   1.083       .  S
C447        C448   1.401       .  A
C447        H460   1.083       .  S
C448        C449   1.408       .  A
C448       C1203   1.483       .  S
C449        C450   1.399       .  A
C449        H461   1.081       .  S
C450        H462   1.083       .  S
C451       C1200   1.483       .  S
C451        C452   1.345       .  D
C451        H463   1.085       .  S
C452        C453   1.483       .  S
C452       H1216   1.084       .  S
C453        C454   1.401       .  A
C453        C458   1.408       .  A
C454        C455   1.395       .  A
C454        H465   1.083       .  S
C455        C456   1.407       .  A
C455        H466   1.083       .  S
C456        C457   1.405       .  A
C457        C458   1.399       .  A
C457        H467   1.083       .  S
C458        H468   1.081       .  S
H464       C1204   1.084       .  S
C469        C470   1.406       .  A
C469        C474   1.406       .  A
C470        C471   1.398       .  A
C470        H483   1.083       .  S
C471        C472   1.403       .  A
C471        H484   1.083       .  S
C472        C473   1.408       .  A
C472        C475   1.487       .  S
C473        C474   1.398       .  A
C473        H485   1.081       .  S
C474        H486   1.083       .  S
C476        C477   1.487       .  S
C477        C478   1.403       .  A
C477        C482   1.407       .  A
C478        C479   1.398       .  A
C478        H489   1.083       .  S
C479        C480   1.406       .  A
C479        H490   1.083       .  S
C480        C481   1.407       .  A
C481        C482   1.398       .  A
C481        H491   1.083       .  S
C482        H492   1.082       .  S
C493        C494   1.407       .  A
C493        C498   1.406       .  A
C494        C495   1.397       .  A
C494        H507   1.083       .  S
C495        C496   1.403       .  A
C495        H508   1.084       .  S
C496        C497   1.410       .  A
C496        C687   1.491       .  S
C497        C498   1.401       .  A
C497        H509   1.080       .  S
C498        H510   1.083       .  S
C499        C684   1.491       .  S
C499        H511   1.084       .  S
C500        C501   1.491       .  S
C500        H512   1.084       .  S
C501        C502   1.403       .  A
C501        C506   1.410       .  A
C502        C503   1.397       .  A
C502        H513   1.084       .  S
C503        C504   1.407       .  A
C503        H514   1.083       .  S
C504        C505   1.406       .  A
C505        C506   1.401       .  A
C505        H515   1.083       .  S
C506        H516   1.081       .  S
C517        C518   1.407       .  A
C517        C522   1.406       .  A
C518        C519   1.396       .  A
C518        H531   1.083       .  S
C519        C520   1.401       .  A
C519        H532   1.084       .  S
C520        C521   1.409       .  A
C520        C711   1.487       .  S
C521        C522   1.401       .  A
C521        H533   1.081       .  S
C522        H534   1.083       .  S
C523        C708   1.487       .  S
C523        C524   1.347       .  D
C523        H535   1.084       .  S
C524        C525   1.488       .  S
C524        H724   1.085       .  S
C525        C526   1.402       .  A
C525        C530   1.410       .  A
C526        C527   1.396       .  A
C526        H537   1.084       .  S
C527        C528   1.407       .  A
C527        H538   1.083       .  S
C528        C529   1.406       .  A
C529        C530   1.401       .  A
C529        H539   1.083       .  S
C530        H540   1.081       .  S
H536        C712   1.085   1_554  S
C541        C542   1.407       .  A
C541        C546   1.407       .  A
C542        C543   1.398       .  A
C542        H555   1.083       .  S
C543        C544   1.403       .  A
C543        H556   1.083       .  S
C544        C545   1.409       .  A
C544        C547   1.490       .  S
C545        C546   1.402       .  A
C545        H557   1.082       .  S
C546        H558   1.083       .  S
C547        C548   1.349       .  D
C547        H559   1.084       .  S
C548        C549   1.492       .  S
C548        H560   1.085       .  S
C549        C550   1.404       .  A
C549        C554   1.410       .  A
C550        C551   1.398       .  A
C550        H561   1.083       .  S
C551        C552   1.407       .  A
C551        H562   1.083       .  S
C552        C553   1.406       .  A
C553        C554   1.401       .  A
C553        H563   1.083       .  S
C554        H564   1.081       .  S
Fe565       O581   2.075       .  S
Fe565       O571   2.048       .  S
Fe565       O578   2.053       .  S
Fe565       O570   2.076       .  S
Fe565       O576   1.972       .  S
Fe566       O569   2.082       .  S
Fe566       O573   2.057       .  S
Fe566       O577   2.086       .  S
Fe566       O582   2.053       .  S
Fe566       O576   1.972       .  S
Fe567       O585   2.057       .  S
Fe567       O572   2.082       .  S
Fe567       O579   2.081       .  S
Fe567       O568   2.057       .  S
Fe567       O576   1.974       .  S
O568        C575   1.267       .  A
O569        C583   1.272       .  A
O570        C575   1.270       .  A
O571        C574   1.268       .  A
O572        C584   1.273       .  A
O573        C586   1.268       .  A
C574        O579   1.273       .  A
C574        C633   1.481       .  S
C575        C620   1.485       .  S
O577        C580   1.273       .  A
O578        C580   1.268       .  A
C580        C692   1.486       .  S
O581        C586   1.271       .  A
O582        C584   1.269       .  A
C583        O585   1.267       .  A
C583        C740   1.487       .  S
C584        C716   1.485       .  S
C586        C668   1.484       .  S
Fe587       O603   2.053       .  S
Fe587       O593   2.074       .  S
Fe587       O600   2.073       .  S
Fe587       O592   2.047       .  S
Fe587       O598   1.972       .  S
Fe588       O591   2.054       .  S
Fe588       O595   2.085       .  S
Fe588       O599   2.058       .  S
Fe588       O604   2.080       .  S
Fe588       O598   1.973       .  S
Fe589       O607   2.082       .  S
Fe589       O594   2.058       .  S
Fe589       O601   2.058       .  S
Fe589       O590   2.081       .  S
Fe589       O598   1.974       .  S
O590        C597   1.273       .  A
O591        C605   1.269       .  A
O592        C597   1.267       .  A
O593        C596   1.270       .  A
O594        C606   1.268       .  A
O595        C608   1.273       .  A
C596        O601   1.268       .  A
C596        C609   1.485       .  S
C597        C644   1.481       .  S
O599        C602   1.268       .  A
O600        C602   1.270       .  A
C602        C657   1.484       .  S
O603        C608   1.268       .  A
O604        C606   1.271       .  A
C605        O607   1.273       .  A
C605        C705   1.485       .  S
C606        C729   1.487       .  S
C608        C681   1.486       .  S
C609        C610   1.406       .  A
C609        C614   1.407       .  A
C610        C611   1.397       .  A
C610        H623   1.083       .  S
C611        C612   1.403       .  A
C611        H624   1.083       .  S
C612        C613   1.408       .  A
C612        C615   1.488       .  S
C613        C614   1.400       .  A
C613        H625   1.081       .  S
C614        H626   1.083       .  S
C615       C1180   1.348       .  D
C615       H1379   1.084       .  S
C616        C617   1.488       .  S
C616       C1179   1.348   1_455  D
C616       H1380   1.084   1_556  S
C617        C618   1.403       .  A
C617        C622   1.408       .  A
C618        C619   1.397       .  A
C618        H629   1.083       .  S
C619        C620   1.406       .  A
C619        H630   1.083       .  S
C620        C621   1.406       .  A
C621        C622   1.400       .  A
C621        H631   1.083       .  S
C622        H632   1.081       .  S
H627       C1367   1.084       .  S
H628       C1368   1.084   1_554  S
C633        C634   1.407       .  A
C633        C638   1.405       .  A
C634        C635   1.395       .  A
C634        H647   1.083       .  S
C635        C636   1.401       .  A
C635        H648   1.083       .  S
C636        C637   1.408       .  A
C636       C1391   1.483       .  S
C637        C638   1.399       .  A
C637        H649   1.081       .  S
C638        H650   1.083       .  S
C639       C1388   1.483       .  S
C639        C640   1.345       .  D
C639        H651   1.085       .  S
C640        C641   1.483       .  S
C640       H1404   1.084       .  S
C641        C642   1.401       .  A
C641        C646   1.408       .  A
C642        C643   1.395       .  A
C642        H653   1.083       .  S
C643        C644   1.407       .  A
C643        H654   1.083       .  S
C644        C645   1.405       .  A
C645        C646   1.399       .  A
C645        H655   1.083       .  S
C646        H656   1.081       .  S
H652       C1392   1.084       .  S
C657        C658   1.406       .  A
C657        C662   1.406       .  A
C658        C659   1.398       .  A
C658        H671   1.083       .  S
C659        C660   1.403       .  A
C659        H672   1.083       .  S
C660        C661   1.408       .  A
C660        C663   1.487       .  S
C661        C662   1.398       .  A
C661        H673   1.081       .  S
C662        H674   1.083       .  S
C664        C665   1.487       .  S
C665        C666   1.403       .  A
C665        C670   1.407       .  A
C666        C667   1.398       .  A
C666        H677   1.083       .  S
C667        C668   1.406       .  A
C667        H678   1.083       .  S
C668        C669   1.407       .  A
C669        C670   1.398       .  A
C669        H679   1.083       .  S
C670        H680   1.082       .  S
C681        C682   1.407       .  A
C681        C686   1.406       .  A
C682        C683   1.397       .  A
C682        H695   1.083       .  S
C683        C684   1.403       .  A
C683        H696   1.084       .  S
C684        C685   1.410       .  A
C685        C686   1.401       .  A
C685        H697   1.080       .  S
C686        H698   1.083       .  S
C687        H699   1.084   1_554  S
C688        C689   1.491       .  S
C688        H700   1.084   1_556  S
C689        C690   1.403       .  A
C689        C694   1.410       .  A
C690        C691   1.397       .  A
C690        H701   1.084       .  S
C691        C692   1.407       .  A
C691        H702   1.083       .  S
C692        C693   1.406       .  A
C693        C694   1.401       .  A
C693        H703   1.083       .  S
C694        H704   1.081       .  S
C705        C706   1.407       .  A
C705        C710   1.406       .  A
C706        C707   1.396       .  A
C706        H719   1.083       .  S
C707        C708   1.401       .  A
C707        H720   1.084       .  S
C708        C709   1.409       .  A
C709        C710   1.401       .  A
C709        H721   1.081       .  S
C710        H722   1.083       .  S
C711        C712   1.347   1_554  D
C711        H723   1.084   1_554  S
C712        C713   1.488       .  S
C713        C714   1.402       .  A
C713        C718   1.410       .  A
C714        C715   1.396       .  A
C714        H725   1.084       .  S
C715        C716   1.407       .  A
C715        H726   1.083       .  S
C716        C717   1.406       .  A
C717        C718   1.401       .  A
C717        H727   1.083       .  S
C718        H728   1.081       .  S
C729        C730   1.407       .  A
C729        C734   1.407       .  A
C730        C731   1.398       .  A
C730        H743   1.083       .  S
C731        C732   1.403       .  A
C731        H744   1.083       .  S
C732        C733   1.409       .  A
C732        C735   1.490       .  S
C733        C734   1.402       .  A
C733        H745   1.082       .  S
C734        H746   1.083       .  S
C735        C736   1.349       .  D
C735        H747   1.084       .  S
C736        C737   1.492       .  S
C736        H748   1.085       .  S
C737        C738   1.404       .  A
C737        C742   1.410       .  A
C738        C739   1.398       .  A
C738        H749   1.083       .  S
C739        C740   1.407       .  A
C739        H750   1.083       .  S
C740        C741   1.406       .  A
C741        C742   1.401       .  A
C741        H751   1.083       .  S
C742        H752   1.081       .  S
Fe753       O769   2.075       .  S
Fe753       O759   2.048       .  S
Fe753       O766   2.053       .  S
Fe753       O758   2.076       .  S
Fe753       O764   1.972       .  S
Fe754       O757   2.082       .  S
Fe754       O761   2.057       .  S
Fe754       O765   2.086       .  S
Fe754       O770   2.053       .  S
Fe754       O764   1.972       .  S
Fe755       O773   2.057       .  S
Fe755       O760   2.082       .  S
Fe755       O767   2.081       .  S
Fe755       O756   2.057       .  S
Fe755       O764   1.974       .  S
O756        C763   1.267       .  A
O757        C771   1.272       .  A
O758        C763   1.270       .  A
O759        C762   1.268       .  A
O760        C772   1.273       .  A
O761        C774   1.268       .  A
C762        O767   1.273       .  A
C762        C821   1.481       .  S
C763        C808   1.485       .  S
O765        C768   1.273       .  A
O766        C768   1.268       .  A
C768        C880   1.486       .  S
O769        C774   1.271       .  A
O770        C772   1.269       .  A
C771        O773   1.267       .  A
C771        C928   1.487       .  S
C772        C904   1.485       .  S
C774        C856   1.484       .  S
Fe775       O791   2.053       .  S
Fe775       O781   2.074       .  S
Fe775       O788   2.073       .  S
Fe775       O780   2.047       .  S
Fe775       O786   1.972       .  S
Fe776       O779   2.054       .  S
Fe776       O783   2.085       .  S
Fe776       O787   2.058       .  S
Fe776       O792   2.080       .  S
Fe776       O786   1.973       .  S
Fe777       O795   2.082       .  S
Fe777       O782   2.058       .  S
Fe777       O789   2.058       .  S
Fe777       O778   2.081       .  S
Fe777       O786   1.974       .  S
O778        C785   1.273       .  A
O779        C793   1.269       .  A
O780        C785   1.267       .  A
O781        C784   1.270       .  A
O782        C794   1.268       .  A
O783        C796   1.273       .  A
C784        O789   1.268       .  A
C784        C797   1.485       .  S
C785        C832   1.481       .  S
O787        C790   1.268       .  A
O788        C790   1.270       .  A
C790        C845   1.484       .  S
O791        C796   1.268       .  A
O792        C794   1.271       .  A
C793        O795   1.273       .  A
C793        C893   1.485       .  S
C794        C917   1.487       .  S
C796        C869   1.486       .  S
C797        C798   1.406       .  A
C797        C802   1.407       .  A
C798        C799   1.397       .  A
C798        H811   1.083       .  S
C799        C800   1.403       .  A
C799        H812   1.083       .  S
C800        C801   1.408       .  A
C800        C803   1.488   1_554  S
C801        C802   1.400       .  A
C801        H813   1.081       .  S
C802        H814   1.083       .  S
C804        C805   1.488       .  S
C805        C806   1.403       .  A
C805        C810   1.408       .  A
C806        C807   1.397       .  A
C806        H817   1.083       .  S
C807        C808   1.406       .  A
C807        H818   1.083       .  S
C808        C809   1.406       .  A
C809        C810   1.400       .  A
C809        H819   1.083       .  S
C810        H820   1.081       .  S
C821        C822   1.407       .  A
C821        C826   1.405       .  A
C822        C823   1.395       .  A
C822        H835   1.083       .  S
C823        C824   1.401       .  A
C823        H836   1.083       .  S
C824        C825   1.408       .  A
C825        C826   1.399       .  A
C825        H837   1.081       .  S
C826        H838   1.083       .  S
C827        C828   1.345   1_455  D
C827        H839   1.085       .  S
C828        C829   1.483       .  S
C829        C830   1.401       .  A
C829        C834   1.408       .  A
C830        C831   1.395       .  A
C830        H841   1.083       .  S
C831        C832   1.407       .  A
C831        H842   1.083       .  S
C832        C833   1.405       .  A
C833        C834   1.399       .  A
C833        H843   1.083       .  S
C834        H844   1.081       .  S
C845        C846   1.406       .  A
C845        C850   1.406       .  A
C846        C847   1.398       .  A
C846        H859   1.083       .  S
C847        C848   1.403       .  A
C847        H860   1.083       .  S
C848        C849   1.408       .  A
C848        C851   1.487       .  S
C849        C850   1.398       .  A
C849        H861   1.081       .  S
C850        H862   1.083       .  S
C851       C1228   1.348   1_545  D
C851       H1239   1.085       .  S
C852        C853   1.487       .  S
C852       C1227   1.348       .  D
C852       H1240   1.085       .  S
C853        C854   1.403       .  A
C853        C858   1.407       .  A
C854        C855   1.398       .  A
C854        H865   1.083       .  S
C855        C856   1.406       .  A
C855        H866   1.083       .  S
C856        C857   1.407       .  A
C857        C858   1.398       .  A
C857        H867   1.083       .  S
C858        H868   1.082       .  S
H863       C1227   1.085       .  S
H864       C1228   1.085       .  S
C869        C870   1.407       .  A
C869        C874   1.406       .  A
C870        C871   1.397       .  A
C870        H883   1.083       .  S
C871        C872   1.403       .  A
C871        H884   1.084       .  S
C872        C873   1.410       .  A
C872       C1063   1.491       .  S
C873        C874   1.401       .  A
C873        H885   1.080       .  S
C874        H886   1.083       .  S
C875       C1060   1.491       .  S
C875       C1252   1.349   1_545  D
C875        H887   1.084       .  S
C876        C877   1.491       .  S
C876       C1251   1.349       .  D
C876        H888   1.084       .  S
C877        C878   1.403       .  A
C877        C882   1.410       .  A
C878        C879   1.397       .  A
C878        H889   1.084       .  S
C879        C880   1.407       .  A
C879        H890   1.083       .  S
C880        C881   1.406       .  A
C881        C882   1.401       .  A
C881        H891   1.083       .  S
C882        H892   1.081       .  S
C893        C894   1.407       .  A
C893        C898   1.406       .  A
C894        C895   1.396       .  A
C894        H907   1.083       .  S
C895        C896   1.401       .  A
C895        H908   1.084       .  S
C896        C897   1.409       .  A
C896       C1087   1.487       .  S
C897        C898   1.401       .  A
C897        H909   1.081       .  S
C898        H910   1.083       .  S
C899       C1084   1.487       .  S
C899        C900   1.347       .  D
C899        H911   1.084       .  S
C900        C901   1.488       .  S
C900       H1100   1.085       .  S
C901        C902   1.402       .  A
C901        C906   1.410       .  A
C902        C903   1.396       .  A
C902        H913   1.084       .  S
C903        C904   1.407       .  A
C903        H914   1.083       .  S
C904        C905   1.406       .  A
C905        C906   1.401       .  A
C905        H915   1.083       .  S
C906        H916   1.081       .  S
H912       C1088   1.085   1_554  S
C917        C918   1.407       .  A
C917        C922   1.407       .  A
C918        C919   1.398       .  A
C918        H931   1.083       .  S
C919        C920   1.403       .  A
C919        H932   1.083       .  S
C920        C921   1.409       .  A
C920        C923   1.490       .  S
C921        C922   1.402       .  A
C921        H933   1.082       .  S
C922        H934   1.083       .  S
C923        C924   1.349       .  D
C923        H935   1.084       .  S
C924        C925   1.492       .  S
C924        H936   1.085       .  S
C925        C926   1.404       .  A
C925        C930   1.410       .  A
C926        C927   1.398       .  A
C926        H937   1.083       .  S
C927        C928   1.407       .  A
C927        H938   1.083       .  S
C928        C929   1.406       .  A
C929        C930   1.401       .  A
C929        H939   1.083       .  S
C930        H940   1.081       .  S
Fe941       O957   2.075       .  S
Fe941       O947   2.048       .  S
Fe941       O954   2.053       .  S
Fe941       O946   2.076       .  S
Fe941       O952   1.972       .  S
Fe942       O945   2.082       .  S
Fe942       O949   2.057       .  S
Fe942       O953   2.086       .  S
Fe942       O958   2.053       .  S
Fe942       O952   1.972       .  S
Fe943       O961   2.057       .  S
Fe943       O948   2.082       .  S
Fe943       O955   2.081       .  S
Fe943       O944   2.057       .  S
Fe943       O952   1.974       .  S
O944        C951   1.267       .  A
O945        C959   1.272       .  A
O946        C951   1.270       .  A
O947        C950   1.268       .  A
O948        C960   1.273       .  A
O949        C962   1.268       .  A
C950        O955   1.273       .  A
C950       C1009   1.481       .  S
C951        C996   1.485       .  S
O953        C956   1.273       .  A
O954        C956   1.268       .  A
C956       C1068   1.486       .  S
O957        C962   1.271       .  A
O958        C960   1.269       .  A
C959        O961   1.267       .  A
C959       C1116   1.487       .  S
C960       C1092   1.485       .  S
C962       C1044   1.484       .  S
Fe963       O979   2.053       .  S
Fe963       O969   2.074       .  S
Fe963       O976   2.073       .  S
Fe963       O968   2.047       .  S
Fe963       O974   1.972       .  S
Fe964       O967   2.054       .  S
Fe964       O971   2.085       .  S
Fe964       O975   2.058       .  S
Fe964       O980   2.080       .  S
Fe964       O974   1.973       .  S
Fe965       O983   2.082       .  S
Fe965       O970   2.058       .  S
Fe965       O977   2.058       .  S
Fe965       O966   2.081       .  S
Fe965       O974   1.974       .  S
O966        C973   1.273       .  A
O967        C981   1.269       .  A
O968        C973   1.267       .  A
O969        C972   1.270       .  A
O970        C982   1.268       .  A
O971        C984   1.273       .  A
C972        O977   1.268       .  A
C972        C985   1.485       .  S
C973       C1020   1.481       .  S
O975        C978   1.268       .  A
O976        C978   1.270       .  A
C978       C1033   1.484       .  S
O979        C984   1.268       .  A
O980        C982   1.271       .  A
C981        O983   1.273       .  A
C981       C1081   1.485       .  S
C982       C1105   1.487       .  S
C984       C1057   1.486       .  S
C985        C986   1.406       .  A
C985        C990   1.407       .  A
C986        C987   1.397       .  A
C986        H999   1.083       .  S
C987        C988   1.403       .  A
C987       H1000   1.083       .  S
C988        C989   1.408       .  A
C988        C991   1.488       .  S
C989        C990   1.400       .  A
C989       H1001   1.081       .  S
C990       H1002   1.083       .  S
C992        C993   1.488       .  S
C993        C994   1.403       .  A
C993        C998   1.408       .  A
C994        C995   1.397       .  A
C994       H1005   1.083       .  S
C995        C996   1.406       .  A
C995       H1006   1.083       .  S
C996        C997   1.406       .  A
C997        C998   1.400       .  A
C997       H1007   1.083       .  S
C998       H1008   1.081       .  S
C1009      C1010   1.407       .  A
C1009      C1014   1.405       .  A
C1010      C1011   1.395       .  A
C1010      H1023   1.083       .  S
C1011      C1012   1.401       .  A
C1011      H1024   1.083       .  S
C1012      C1013   1.408       .  A
C1013      C1014   1.399       .  A
C1013      H1025   1.081       .  S
C1014      H1026   1.083       .  S
C1015      C1016   1.345   1_455  D
C1015      H1027   1.085       .  S
C1016      C1017   1.483       .  S
C1017      C1018   1.401       .  A
C1017      C1022   1.408       .  A
C1018      C1019   1.395       .  A
C1018      H1029   1.083       .  S
C1019      C1020   1.407       .  A
C1019      H1030   1.083       .  S
C1020      C1021   1.405       .  A
C1021      C1022   1.399       .  A
C1021      H1031   1.083       .  S
C1022      H1032   1.081       .  S
C1033      C1034   1.406       .  A
C1033      C1038   1.406       .  A
C1034      C1035   1.398       .  A
C1034      H1047   1.083       .  S
C1035      C1036   1.403       .  A
C1035      H1048   1.083       .  S
C1036      C1037   1.408       .  A
C1036      C1039   1.487       .  S
C1037      C1038   1.398       .  A
C1037      H1049   1.081       .  S
C1038      H1050   1.083       .  S
C1039      C1416   1.348   1_545  D
C1039      H1427   1.085       .  S
C1040      C1041   1.487       .  S
C1040      C1415   1.348       .  D
C1040      H1428   1.085       .  S
C1041      C1042   1.403       .  A
C1041      C1046   1.407       .  A
C1042      C1043   1.398       .  A
C1042      H1053   1.083       .  S
C1043      C1044   1.406       .  A
C1043      H1054   1.083       .  S
C1044      C1045   1.407       .  A
C1045      C1046   1.398       .  A
C1045      H1055   1.083       .  S
C1046      H1056   1.082       .  S
H1051      C1415   1.085       .  S
H1052      C1416   1.085       .  S
C1057      C1058   1.407       .  A
C1057      C1062   1.406       .  A
C1058      C1059   1.397       .  A
C1058      H1071   1.083       .  S
C1059      C1060   1.403       .  A
C1059      H1072   1.084       .  S
C1060      C1061   1.410       .  A
C1061      C1062   1.401       .  A
C1061      H1073   1.080       .  S
C1062      H1074   1.083       .  S
C1063      C1440   1.349   1_544  D
C1063      H1075   1.084   1_554  S
C1064      C1065   1.491       .  S
C1064      C1439   1.349   1_556  D
C1064      H1076   1.084   1_556  S
C1065      C1066   1.403       .  A
C1065      C1070   1.410       .  A
C1066      C1067   1.397       .  A
C1066      H1077   1.084       .  S
C1067      C1068   1.407       .  A
C1067      H1078   1.083       .  S
C1068      C1069   1.406       .  A
C1069      C1070   1.401       .  A
C1069      H1079   1.083       .  S
C1070      H1080   1.081       .  S
C1081      C1082   1.407       .  A
C1081      C1086   1.406       .  A
C1082      C1083   1.396       .  A
C1082      H1095   1.083       .  S
C1083      C1084   1.401       .  A
C1083      H1096   1.084       .  S
C1084      C1085   1.409       .  A
C1085      C1086   1.401       .  A
C1085      H1097   1.081       .  S
C1086      H1098   1.083       .  S
C1087      C1088   1.347   1_554  D
C1087      H1099   1.084   1_554  S
C1088      C1089   1.488       .  S
C1089      C1090   1.402       .  A
C1089      C1094   1.410       .  A
C1090      C1091   1.396       .  A
C1090      H1101   1.084       .  S
C1091      C1092   1.407       .  A
C1091      H1102   1.083       .  S
C1092      C1093   1.406       .  A
C1093      C1094   1.401       .  A
C1093      H1103   1.083       .  S
C1094      H1104   1.081       .  S
C1105      C1106   1.407       .  A
C1105      C1110   1.407       .  A
C1106      C1107   1.398       .  A
C1106      H1119   1.083       .  S
C1107      C1108   1.403       .  A
C1107      H1120   1.083       .  S
C1108      C1109   1.409       .  A
C1108      C1111   1.490       .  S
C1109      C1110   1.402       .  A
C1109      H1121   1.082       .  S
C1110      H1122   1.083       .  S
C1111      C1112   1.349       .  D
C1111      H1123   1.084       .  S
C1112      C1113   1.492       .  S
C1112      H1124   1.085       .  S
C1113      C1114   1.404       .  A
C1113      C1118   1.410       .  A
C1114      C1115   1.398       .  A
C1114      H1125   1.083       .  S
C1115      C1116   1.407       .  A
C1115      H1126   1.083       .  S
C1116      C1117   1.406       .  A
C1117      C1118   1.401       .  A
C1117      H1127   1.083       .  S
C1118      H1128   1.081       .  S
Fe1129     O1145   2.075       .  S
Fe1129     O1135   2.048       .  S
Fe1129     O1142   2.053       .  S
Fe1129     O1134   2.076       .  S
Fe1129     O1140   1.972       .  S
Fe1130     O1133   2.082       .  S
Fe1130     O1137   2.057       .  S
Fe1130     O1141   2.086       .  S
Fe1130     O1146   2.053       .  S
Fe1130     O1140   1.972       .  S
Fe1131     O1149   2.057       .  S
Fe1131     O1136   2.082       .  S
Fe1131     O1143   2.081       .  S
Fe1131     O1132   2.057       .  S
Fe1131     O1140   1.974       .  S
O1132      C1139   1.267       .  A
O1133      C1147   1.272       .  A
O1134      C1139   1.270       .  A
O1135      C1138   1.268       .  A
O1136      C1148   1.273       .  A
O1137      C1150   1.268       .  A
C1138      O1143   1.273       .  A
C1138      C1197   1.481       .  S
C1139      C1184   1.485       .  S
O1141      C1144   1.273       .  A
O1142      C1144   1.268       .  A
C1144      C1256   1.486       .  S
O1145      C1150   1.271       .  A
O1146      C1148   1.269       .  A
C1147      O1149   1.267       .  A
C1147      C1304   1.487       .  S
C1148      C1280   1.485       .  S
C1150      C1232   1.484       .  S
Fe1151     O1167   2.053       .  S
Fe1151     O1157   2.074       .  S
Fe1151     O1164   2.073       .  S
Fe1151     O1156   2.047       .  S
Fe1151     O1162   1.972       .  S
Fe1152     O1155   2.054       .  S
Fe1152     O1159   2.085       .  S
Fe1152     O1163   2.058       .  S
Fe1152     O1168   2.080       .  S
Fe1152     O1162   1.973       .  S
Fe1153     O1171   2.082       .  S
Fe1153     O1158   2.058       .  S
Fe1153     O1165   2.058       .  S
Fe1153     O1154   2.081       .  S
Fe1153     O1162   1.974       .  S
O1154      C1161   1.273       .  A
O1155      C1169   1.269       .  A
O1156      C1161   1.267       .  A
O1157      C1160   1.270       .  A
O1158      C1170   1.268       .  A
O1159      C1172   1.273       .  A
C1160      O1165   1.268       .  A
C1160      C1173   1.485       .  S
C1161      C1208   1.481       .  S
O1163      C1166   1.268       .  A
O1164      C1166   1.270       .  A
C1166      C1221   1.484       .  S
O1167      C1172   1.268       .  A
O1168      C1170   1.271       .  A
C1169      O1171   1.273       .  A
C1169      C1269   1.485       .  S
C1170      C1293   1.487       .  S
C1172      C1245   1.486       .  S
C1173      C1174   1.406       .  A
C1173      C1178   1.407       .  A
C1174      C1175   1.397       .  A
C1174      H1187   1.083       .  S
C1175      C1176   1.403       .  A
C1175      H1188   1.083       .  S
C1176      C1177   1.408       .  A
C1176      C1179   1.488   1_554  S
C1177      C1178   1.400       .  A
C1177      H1189   1.081       .  S
C1178      H1190   1.083       .  S
C1180      C1181   1.488       .  S
C1181      C1182   1.403       .  A
C1181      C1186   1.408       .  A
C1182      C1183   1.397       .  A
C1182      H1193   1.083       .  S
C1183      C1184   1.406       .  A
C1183      H1194   1.083       .  S
C1184      C1185   1.406       .  A
C1185      C1186   1.400       .  A
C1185      H1195   1.083       .  S
C1186      H1196   1.081       .  S
C1197      C1198   1.407       .  A
C1197      C1202   1.405       .  A
C1198      C1199   1.395       .  A
C1198      H1211   1.083       .  S
C1199      C1200   1.401       .  A
C1199      H1212   1.083       .  S
C1200      C1201   1.408       .  A
C1201      C1202   1.399       .  A
C1201      H1213   1.081       .  S
C1202      H1214   1.083       .  S
C1203      C1204   1.345   1_455  D
C1203      H1215   1.085       .  S
C1204      C1205   1.483       .  S
C1205      C1206   1.401       .  A
C1205      C1210   1.408       .  A
C1206      C1207   1.395       .  A
C1206      H1217   1.083       .  S
C1207      C1208   1.407       .  A
C1207      H1218   1.083       .  S
C1208      C1209   1.405       .  A
C1209      C1210   1.399       .  A
C1209      H1219   1.083       .  S
C1210      H1220   1.081       .  S
C1221      C1222   1.406       .  A
C1221      C1226   1.406       .  A
C1222      C1223   1.398       .  A
C1222      H1235   1.083       .  S
C1223      C1224   1.403       .  A
C1223      H1236   1.083       .  S
C1224      C1225   1.408       .  A
C1224      C1227   1.487       .  S
C1225      C1226   1.398       .  A
C1225      H1237   1.081       .  S
C1226      H1238   1.083       .  S
C1228      C1229   1.487       .  S
C1229      C1230   1.403       .  A
C1229      C1234   1.407       .  A
C1230      C1231   1.398       .  A
C1230      H1241   1.083       .  S
C1231      C1232   1.406       .  A
C1231      H1242   1.083       .  S
C1232      C1233   1.407       .  A
C1233      C1234   1.398       .  A
C1233      H1243   1.083       .  S
C1234      H1244   1.082       .  S
C1245      C1246   1.407       .  A
C1245      C1250   1.406       .  A
C1246      C1247   1.397       .  A
C1246      H1259   1.083       .  S
C1247      C1248   1.403       .  A
C1247      H1260   1.084       .  S
C1248      C1249   1.410       .  A
C1248      C1439   1.491       .  S
C1249      C1250   1.401       .  A
C1249      H1261   1.080       .  S
C1250      H1262   1.083       .  S
C1251      C1436   1.491       .  S
C1251      H1263   1.084       .  S
C1252      C1253   1.491       .  S
C1252      H1264   1.084       .  S
C1253      C1254   1.403       .  A
C1253      C1258   1.410       .  A
C1254      C1255   1.397       .  A
C1254      H1265   1.084       .  S
C1255      C1256   1.407       .  A
C1255      H1266   1.083       .  S
C1256      C1257   1.406       .  A
C1257      C1258   1.401       .  A
C1257      H1267   1.083       .  S
C1258      H1268   1.081       .  S
C1269      C1270   1.407       .  A
C1269      C1274   1.406       .  A
C1270      C1271   1.396       .  A
C1270      H1283   1.083       .  S
C1271      C1272   1.401       .  A
C1271      H1284   1.084       .  S
C1272      C1273   1.409       .  A
C1272      C1463   1.487       .  S
C1273      C1274   1.401       .  A
C1273      H1285   1.081       .  S
C1274      H1286   1.083       .  S
C1275      C1460   1.487       .  S
C1275      C1276   1.347       .  D
C1275      H1287   1.084       .  S
C1276      C1277   1.488       .  S
C1276      H1476   1.085       .  S
C1277      C1278   1.402       .  A
C1277      C1282   1.410       .  A
C1278      C1279   1.396       .  A
C1278      H1289   1.084       .  S
C1279      C1280   1.407       .  A
C1279      H1290   1.083       .  S
C1280      C1281   1.406       .  A
C1281      C1282   1.401       .  A
C1281      H1291   1.083       .  S
C1282      H1292   1.081       .  S
H1288      C1464   1.085   1_554  S
C1293      C1294   1.407       .  A
C1293      C1298   1.407       .  A
C1294      C1295   1.398       .  A
C1294      H1307   1.083       .  S
C1295      C1296   1.403       .  A
C1295      H1308   1.083       .  S
C1296      C1297   1.409       .  A
C1296      C1299   1.490       .  S
C1297      C1298   1.402       .  A
C1297      H1309   1.082       .  S
C1298      H1310   1.083       .  S
C1299      C1300   1.349       .  D
C1299      H1311   1.084       .  S
C1300      C1301   1.492       .  S
C1300      H1312   1.085       .  S
C1301      C1302   1.404       .  A
C1301      C1306   1.410       .  A
C1302      C1303   1.398       .  A
C1302      H1313   1.083       .  S
C1303      C1304   1.407       .  A
C1303      H1314   1.083       .  S
C1304      C1305   1.406       .  A
C1305      C1306   1.401       .  A
C1305      H1315   1.083       .  S
C1306      H1316   1.081       .  S
Fe1317     O1333   2.075       .  S
Fe1317     O1323   2.048       .  S
Fe1317     O1330   2.053       .  S
Fe1317     O1322   2.076       .  S
Fe1317     O1328   1.972       .  S
Fe1318     O1321   2.082       .  S
Fe1318     O1325   2.057       .  S
Fe1318     O1329   2.086       .  S
Fe1318     O1334   2.053       .  S
Fe1318     O1328   1.972       .  S
Fe1319     O1337   2.057       .  S
Fe1319     O1324   2.082       .  S
Fe1319     O1331   2.081       .  S
Fe1319     O1320   2.057       .  S
Fe1319     O1328   1.974       .  S
O1320      C1327   1.267       .  A
O1321      C1335   1.272       .  A
O1322      C1327   1.270       .  A
O1323      C1326   1.268       .  A
O1324      C1336   1.273       .  A
O1325      C1338   1.268       .  A
C1326      O1331   1.273       .  A
C1326      C1385   1.481       .  S
C1327      C1372   1.485       .  S
O1329      C1332   1.273       .  A
O1330      C1332   1.268       .  A
C1332      C1444   1.486       .  S
O1333      C1338   1.271       .  A
O1334      C1336   1.269       .  A
C1335      O1337   1.267       .  A
C1335      C1492   1.487       .  S
C1336      C1468   1.485       .  S
C1338      C1420   1.484       .  S
Fe1339     O1355   2.053       .  S
Fe1339     O1345   2.074       .  S
Fe1339     O1352   2.073       .  S
Fe1339     O1344   2.047       .  S
Fe1339     O1350   1.972       .  S
Fe1340     O1343   2.054       .  S
Fe1340     O1347   2.085       .  S
Fe1340     O1351   2.058       .  S
Fe1340     O1356   2.080       .  S
Fe1340     O1350   1.973       .  S
Fe1341     O1359   2.082       .  S
Fe1341     O1346   2.058       .  S
Fe1341     O1353   2.058       .  S
Fe1341     O1342   2.081       .  S
Fe1341     O1350   1.974       .  S
O1342      C1349   1.273       .  A
O1343      C1357   1.269       .  A
O1344      C1349   1.267       .  A
O1345      C1348   1.270       .  A
O1346      C1358   1.268       .  A
O1347      C1360   1.273       .  A
C1348      O1353   1.268       .  A
C1348      C1361   1.485       .  S
C1349      C1396   1.481       .  S
O1351      C1354   1.268       .  A
O1352      C1354   1.270       .  A
C1354      C1409   1.484       .  S
O1355      C1360   1.268       .  A
O1356      C1358   1.271       .  A
C1357      O1359   1.273       .  A
C1357      C1457   1.485       .  S
C1358      C1481   1.487       .  S
C1360      C1433   1.486       .  S
C1361      C1362   1.406       .  A
C1361      C1366   1.407       .  A
C1362      C1363   1.397       .  A
C1362      H1375   1.083       .  S
C1363      C1364   1.403       .  A
C1363      H1376   1.083       .  S
C1364      C1365   1.408       .  A
C1364      C1367   1.488       .  S
C1365      C1366   1.400       .  A
C1365      H1377   1.081       .  S
C1366      H1378   1.083       .  S
C1368      C1369   1.488       .  S
C1369      C1370   1.403       .  A
C1369      C1374   1.408       .  A
C1370      C1371   1.397       .  A
C1370      H1381   1.083       .  S
C1371      C1372   1.406       .  A
C1371      H1382   1.083       .  S
C1372      C1373   1.406       .  A
C1373      C1374   1.400       .  A
C1373      H1383   1.083       .  S
C1374      H1384   1.081       .  S
C1385      C1386   1.407       .  A
C1385      C1390   1.405       .  A
C1386      C1387   1.395       .  A
C1386      H1399   1.083       .  S
C1387      C1388   1.401       .  A
C1387      H1400   1.083       .  S
C1388      C1389   1.408       .  A
C1389      C1390   1.399       .  A
C1389      H1401   1.081       .  S
C1390      H1402   1.083       .  S
C1391      C1392   1.345   1_455  D
C1391      H1403   1.085       .  S
C1392      C1393   1.483       .  S
C1393      C1394   1.401       .  A
C1393      C1398   1.408       .  A
C1394      C1395   1.395       .  A
C1394      H1405   1.083       .  S
C1395      C1396   1.407       .  A
C1395      H1406   1.083       .  S
C1396      C1397   1.405       .  A
C1397      C1398   1.399       .  A
C1397      H1407   1.083       .  S
C1398      H1408   1.081       .  S
C1409      C1410   1.406       .  A
C1409      C1414   1.406       .  A
C1410      C1411   1.398       .  A
C1410      H1423   1.083       .  S
C1411      C1412   1.403       .  A
C1411      H1424   1.083       .  S
C1412      C1413   1.408       .  A
C1412      C1415   1.487       .  S
C1413      C1414   1.398       .  A
C1413      H1425   1.081       .  S
C1414      H1426   1.083       .  S
C1416      C1417   1.487       .  S
C1417      C1418   1.403       .  A
C1417      C1422   1.407       .  A
C1418      C1419   1.398       .  A
C1418      H1429   1.083       .  S
C1419      C1420   1.406       .  A
C1419      H1430   1.083       .  S
C1420      C1421   1.407       .  A
C1421      C1422   1.398       .  A
C1421      H1431   1.083       .  S
C1422      H1432   1.082       .  S
C1433      C1434   1.407       .  A
C1433      C1438   1.406       .  A
C1434      C1435   1.397       .  A
C1434      H1447   1.083       .  S
C1435      C1436   1.403       .  A
C1435      H1448   1.084       .  S
C1436      C1437   1.410       .  A
C1437      C1438   1.401       .  A
C1437      H1449   1.080       .  S
C1438      H1450   1.083       .  S
C1439      H1451   1.084   1_554  S
C1440      C1441   1.491       .  S
C1440      H1452   1.084   1_556  S
C1441      C1442   1.403       .  A
C1441      C1446   1.410       .  A
C1442      C1443   1.397       .  A
C1442      H1453   1.084       .  S
C1443      C1444   1.407       .  A
C1443      H1454   1.083       .  S
C1444      C1445   1.406       .  A
C1445      C1446   1.401       .  A
C1445      H1455   1.083       .  S
C1446      H1456   1.081       .  S
C1457      C1458   1.407       .  A
C1457      C1462   1.406       .  A
C1458      C1459   1.396       .  A
C1458      H1471   1.083       .  S
C1459      C1460   1.401       .  A
C1459      H1472   1.084       .  S
C1460      C1461   1.409       .  A
C1461      C1462   1.401       .  A
C1461      H1473   1.081       .  S
C1462      H1474   1.083       .  S
C1463      C1464   1.347   1_554  D
C1463      H1475   1.084   1_554  S
C1464      C1465   1.488       .  S
C1465      C1466   1.402       .  A
C1465      C1470   1.410       .  A
C1466      C1467   1.396       .  A
C1466      H1477   1.084       .  S
C1467      C1468   1.407       .  A
C1467      H1478   1.083       .  S
C1468      C1469   1.406       .  A
C1469      C1470   1.401       .  A
C1469      H1479   1.083       .  S
C1470      H1480   1.081       .  S
C1481      C1482   1.407       .  A
C1481      C1486   1.407       .  A
C1482      C1483   1.398       .  A
C1482      H1495   1.083       .  S
C1483      C1484   1.403       .  A
C1483      H1496   1.083       .  S
C1484      C1485   1.409       .  A
C1484      C1487   1.490       .  S
C1485      C1486   1.402       .  A
C1485      H1497   1.082       .  S
C1486      H1498   1.083       .  S
C1487      C1488   1.349       .  D
C1487      H1499   1.084       .  S
C1488      C1489   1.492       .  S
C1488      H1500   1.085       .  S
C1489      C1490   1.404       .  A
C1489      C1494   1.410       .  A
C1490      C1491   1.398       .  A
C1490      H1501   1.083       .  S
C1491      C1492   1.407       .  A
C1491      H1502   1.083       .  S
C1492      C1493   1.406       .  A
C1493      C1494   1.401       .  A
C1493      H1503   1.083       .  S
C1494      H1504   1.081       .  S
