geometry optimzed in LAMMPS
_audit_creation_date              2020-11-30 
_audit_creation_method            'lammps2cif' 
_symmetry_space_group_name_H-M    'P1' 
_symmetry_Int_Tables_number       1 
_symmetry_cell_setting            triclinic 
loop_ 
_symmetry_equiv_pos_as_xyz 
  x,y,z 
_cell_length_a                    33.36895551 
_cell_length_b                    41.96965856503849 
_cell_length_c                    40.02401145753422 
_cell_angle_alpha                 90.1463246197294 
_cell_angle_beta                  90.07702858226745 
_cell_angle_gamma                 90.05268759807143 
loop_ 
_atom_site_label 
_atom_site_type_symbol 
_atom_site_fract_x 
_atom_site_fract_y 
_atom_site_fract_z 
_atom_site_charge 
C1          C  0.18436483  0.80943843  0.36868215     0.03300
C2          C  0.16563149  0.83420121  0.35071388    -0.12800
C3          C  0.13783985  0.85472519  0.36613078     0.00800
C4          C  0.12931798  0.85017706  0.40017443    -0.11400
C5          C  0.14686766  0.82536120  0.41845672     0.03300
C6          C  0.17386864  0.80478401  0.40243457    -0.10800
H7          H  0.17318735  0.83780332  0.32482417     0.08900
H8          H  0.10914544  0.86628605  0.41297729     0.06400
H9          H  0.18717030  0.78555209  0.41655677     0.06300
C10         C  0.71063783  0.82482943  0.06087046     0.03300
C11         C  0.72799185  0.85029370  0.07882923    -0.12800
C12         C  0.75850160  0.86888294  0.06460605     0.00800
C13         C  0.77117692  0.86193411  0.03199590    -0.11400
C14         C  0.75386753  0.83693657  0.01375894     0.03300
C15         C  0.72320912  0.81870376  0.02798508    -0.10800
H16         H  0.71862979  0.85496246  0.10428846     0.08900
H17         H  0.79491189  0.87585347  0.02067952     0.06400
H18         H  0.71100984  0.79861330  0.01425583     0.06300
O19         O  0.93312484  0.81196190  0.79853256    -0.78300
C20         C  0.02358213  0.75054822  0.76177019     0.82700
O21         O  0.01425584  0.88077715  0.73197836    -0.79400
O22         O  0.01724132  0.78482064  0.65840786    -0.80900
O23         O  0.87748987  0.78011567  0.69402752    -0.80700
O24         O  0.87761280  0.81799726  0.76838566    -0.79300
Zn25       Zn  0.97994517  0.81432686  0.76768508     1.55700
O26         O  0.92971185  0.75003614  0.67920906    -0.80700
Cd27       Cd  0.90143586  0.81812809  0.72029954     1.59700
Cd28       Cd  0.98512319  0.85124364  0.69890554     1.59600
O29         O  0.88348858  0.85936599  0.69538898    -0.80700
O30         O  0.96143345  0.81393833  0.72182704    -1.91200
Cd31       Cd  0.97947024  0.77381716  0.69871477     1.59900
O32         O  0.94158350  0.87882703  0.67742056    -0.80700
O33         O  0.01055346  0.74439650  0.73238407    -0.79300
C34         C  0.02070470  0.87904320  0.76326949     0.83200
C35         C  0.89518562  0.81449592  0.79647651     0.82900
O36         O  0.01514563  0.77656133  0.77665797    -0.78300
C37         C  0.89208076  0.75576567  0.67928348     0.83700
O38         O  0.00975392  0.85481292  0.78005289    -0.78400
C39         C  0.90354342  0.87998631  0.67900970     0.83800
C40         C  0.03140832  0.81108036  0.64734905     0.84100
O41         O  0.02316396  0.83764592  0.66118034    -0.80800
C42         C  0.21009485  0.60137771  0.87991253     0.03300
C43         C  0.22214662  0.60708289  0.91319781    -0.12800
C44         C  0.24998497  0.58697420  0.92892563     0.00800
C45         C  0.26655914  0.56164065  0.91071760    -0.11400
C46         C  0.25546866  0.55580620  0.87750641     0.03300
C47         C  0.22664382  0.57538828  0.86235085    -0.10800
H48         H  0.20923313  0.62674494  0.92707381     0.08900
H49         H  0.28889850  0.54650457  0.92233655     0.06400
H50         H  0.21847019  0.57125266  0.83649477     0.06300
C51         C  0.70472623  0.60432099  0.56532244     0.03300
C52         C  0.69328737  0.61091801  0.53235381    -0.12800
C53         C  0.66551300  0.59132777  0.51605610     0.00800
C54         C  0.64939715  0.56495487  0.53262652    -0.11400
C55         C  0.66050397  0.55797179  0.56565243     0.03300
C56         C  0.68850898  0.57778986  0.58190978    -0.10800
H57         H  0.70501323  0.63179358  0.51980410     0.08900
H58         H  0.62759917  0.55012036  0.51980376     0.06400
H59         H  0.69678056  0.57321436  0.60763300     0.06300
O60         O  0.49184358  0.61856873  0.29916517    -0.78300
C61         C  0.39616882  0.67631130  0.25952049     0.82700
O62         O  0.40804915  0.54825700  0.23321790    -0.79400
O63         O  0.40378736  0.63833062  0.15728876    -0.80900
O64         O  0.54222101  0.65301167  0.19447414    -0.80700
O65         O  0.54723928  0.61547681  0.26862482    -0.79300
Zn66       Zn  0.44495884  0.61538006  0.26834274     1.55700
O67         O  0.48729669  0.67853033  0.17682932    -0.80700
Cd68       Cd  0.52243034  0.61384816  0.22094571     1.59700
Cd69       Cd  0.44092376  0.57538209  0.20046041     1.59600
O70         O  0.54398567  0.57269917  0.19804827    -0.80700
O71         O  0.46218274  0.61451186  0.22215804    -1.91200
Cd72       Cd  0.44046590  0.65209191  0.19696093     1.59900
O73         O  0.48753560  0.54756149  0.18415482    -0.80700
O74         O  0.40564416  0.67976694  0.22883617    -0.79300
C75         C  0.40245807  0.55104208  0.26450748     0.83200
C76         C  0.52984732  0.61764672  0.29686002     0.82900
O77         O  0.40928377  0.65315818  0.27692540    -0.78300
C78         C  0.52533032  0.67556715  0.17843436     0.83700
O79         O  0.41556116  0.57490008  0.28097446    -0.78400
C80         C  0.52566667  0.54907854  0.18494267     0.83800
C81         C  0.39288924  0.61109627  0.14634788     0.84100
O82         O  0.40462666  0.58543665  0.16016522    -0.80800
C83         C  0.21461554  0.32609211  0.38124403     0.03300
C84         C  0.23486189  0.35023361  0.36330757    -0.12800
C85         C  0.26158402  0.37135290  0.37947495     0.00800
C86         C  0.26830286  0.36743134  0.41385728    -0.11400
C87         C  0.25088954  0.34235671  0.43160625     0.03300
C88         C  0.22340930  0.32231367  0.41551339    -0.10800
H89         H  0.23068670  0.35195871  0.33661221     0.08900
H90         H  0.28801840  0.38350724  0.42714564     0.06400
H91         H  0.20868047  0.30410702  0.43016521     0.06300
C92         C  0.71873253  0.32990158  0.06356410     0.03300
C93         C  0.70352602  0.32154109  0.03198692    -0.12800
C94         C  0.67338342  0.33995774  0.01722916     0.00800
C95         C  0.65898416  0.36691291  0.03406460    -0.11400
C96         C  0.67304779  0.37505387  0.06609717     0.03300
C97         C  0.70371704  0.35671642  0.08041834    -0.10800
H98         H  0.71386155  0.30003007  0.01967498     0.08900
H99         H  0.63571757  0.38106384  0.02240814     0.06400
H100        H  0.71398341  0.36184964  0.10555611     0.06300
O101        O  0.40856514  0.27550059  0.77800702    -0.78300
C102        C  0.52757027  0.31357647  0.80127294     0.82700
O103        O  0.40552942  0.37938771  0.73489029    -0.79400
O104        O  0.54219127  0.35730280  0.69991929    -0.80900
O105        O  0.49181591  0.24785013  0.68369343    -0.80700
O106        O  0.40493987  0.24858802  0.72995656    -0.79300
Zn107      Zn  0.44362721  0.31332734  0.77064815     1.55700
O108        O  0.54453034  0.27721225  0.69924759    -0.80700
Cd109      Cd  0.44293259  0.27514505  0.69941419     1.59700
Cd110      Cd  0.43965148  0.35212889  0.70308401     1.59600
O111        O  0.40999098  0.28797556  0.65690828    -0.80700
O112        O  0.46223223  0.31377203  0.72490085    -1.91200
Cd113      Cd  0.52234144  0.31639383  0.72466324     1.59900
O114        O  0.40509984  0.34054248  0.66267539    -0.80700
O115        O  0.54557062  0.31608833  0.77326454    -0.79300
C116        C  0.39865185  0.37634096  0.76591733     0.83200
C117        C  0.39506760  0.25248351  0.76052432     0.82900
O118        O  0.48954579  0.31155207  0.80280610    -0.78300
C119        C  0.52963621  0.25267170  0.68492542     0.83700
O120        O  0.41168315  0.35273208  0.78258505    -0.78400
C121        C  0.39706489  0.31496261  0.64693325     0.83800
C122        C  0.52283470  0.37971959  0.68564769     0.84100
O123        O  0.48471680  0.38038977  0.68542073    -0.80800
C124        C  0.19168761  0.11526403  0.87318796     0.03300
C125        C  0.18005686  0.08673020  0.85725060    -0.12800
C126        C  0.15380934  0.06534778  0.87302651     0.00800
C127        C  0.13973215  0.07262306  0.90498138    -0.11400
C128        C  0.15180719  0.10037877  0.92156165     0.03300
C129        C  0.17713461  0.12200409  0.90541460    -0.10800
H130        H  0.19197104  0.08086422  0.83285738     0.08900
H131        H  0.11839778  0.05687064  0.91696701     0.06400
H132        H  0.18589335  0.14371770  0.91813597     0.06300
C133        C  0.72009732  0.10776168  0.56630513     0.03300
C134        C  0.73765208  0.08190770  0.58298506    -0.12800
C135        C  0.76892919  0.06468041  0.56802165     0.00800
C136        C  0.78193905  0.07342016  0.53607765    -0.11400
C137        C  0.76488308  0.09938533  0.51925284     0.03300
C138        C  0.73357823  0.11636390  0.53433322    -0.10800
H139        H  0.72801704  0.07608553  0.60809624     0.08900
H140        H  0.80564004  0.05993018  0.52413101     0.06400
H141        H  0.72093945  0.13698281  0.52194296     0.06300
O142        O  0.01794873  0.15003391  0.27718525    -0.78300
C143        C  0.89695251  0.11639268  0.29781452     0.82700
O144        O  0.01568383  0.04804917  0.22774595    -0.79400
O145        O  0.87858488  0.07172247  0.19693262    -0.80900
O146        O  0.93308051  0.18219744  0.18545302    -0.80700
O147        O  0.01652081  0.18143543  0.23256110    -0.79300
Zn148      Zn  0.98076080  0.11323784  0.26722595     1.55700
O149        O  0.87939368  0.15234162  0.19677642    -0.80700
Cd150      Cd  0.98067360  0.15461118  0.20045505     1.59700
Cd151      Cd  0.98143346  0.07715211  0.19795406     1.59600
O152        O  0.01267725  0.14397365  0.15750540    -0.80700
O153        O  0.96055160  0.11468487  0.22229761    -1.91200
Cd154      Cd  0.90023660  0.11259940  0.22169947     1.59900
O155        O  0.01425187  0.09090340  0.15771308    -0.80700
O156        O  0.87769114  0.11430514  0.27032291    -0.79300
C157        C  0.02069460  0.04854442  0.25922649     0.83200
C158        C  0.02850258  0.17544430  0.26216314     0.82900
O159        O  0.93506152  0.11658882  0.29851669    -0.78300
C160        C  0.89537216  0.17745865  0.18471424     0.83700
O161        O  0.00816530  0.07148781  0.27726340    -0.78400
C162        C  0.02316154  0.11750806  0.14451819     0.83800
C163        C  0.89741507  0.04966665  0.18146178     0.84100
O164        O  0.93551016  0.04950222  0.17992855    -0.80800
C165        C  0.90300510  0.11736524  0.42020026    -0.17600
C166        C  0.88454187  0.11607751  0.45135142    -0.19800
C167        C  0.84265174  0.11570244  0.45367069     0.20800
C168        C  0.81899733  0.11765982  0.42450397    -0.02700
C169        C  0.83772419  0.11898790  0.39298314    -0.05800
C170        C  0.87989049  0.11838377  0.39097510     0.21100
C171        C  0.81438205  0.11996837  0.36353086     0.19300
C172        C  0.77242091  0.12063323  0.36611395    -0.17300
C173        C  0.75374836  0.11921757  0.39745367    -0.19500
C174        C  0.77677659  0.11714826  0.42679789     0.20800
C175        C  0.75856504  0.11315723  0.45823896    -0.32500
C176        C  0.78236740  0.10935177  0.48700966     0.01500
C177        C  0.82417469  0.11195616  0.48462470    -0.23900
C178        C  0.89836361  0.11810705  0.35980253    -0.28400
C179        C  0.87563439  0.11822987  0.33018281     0.07100
C180        C  0.83352766  0.11958227  0.33219936    -0.27100
H181        H  0.93552059  0.11700968  0.41893912     0.11800
H182        H  0.90297304  0.11464281  0.47357704     0.13000
H183        H  0.75394240  0.12163759  0.34379314     0.12100
H184        H  0.72136503  0.11905273  0.39871015     0.11300
H185        H  0.72627414  0.11125085  0.46011166     0.16700
H186        H  0.84245696  0.10963323  0.50691224     0.12600
H187        H  0.93087425  0.11719568  0.35875313     0.15500
H188        H  0.81570237  0.11989334  0.30948643     0.15200
C189        C  0.08497750  0.16610393  0.00780591    -0.17600
C190        C  0.06643314  0.16835430  0.03908471    -0.19800
C191        C  0.06597217  0.14209485  0.06075700     0.20800
C192        C  0.08460592  0.11339529  0.05091762    -0.02700
C193        C  0.10349602  0.11121562  0.01959342    -0.05800
C194        C  0.10346778  0.13762506  0.99777892     0.21100
C195        C  0.12183369  0.08238039  0.00990848     0.19300
C196        C  0.12131140  0.05607433  0.03137995    -0.17300
C197        C  0.10234822  0.05816072  0.06229205    -0.19500
C198        C  0.08393461  0.08665432  0.07218285     0.20800
C199        C  0.06448039  0.08864819  0.10288902    -0.32500
C200        C  0.04565023  0.11701548  0.11290013     0.01500
C201        C  0.04675910  0.14381410  0.09188205    -0.23900
C202        C  0.12095918  0.13467465  0.96604254    -0.28400
C203        C  0.13815036  0.10561378  0.95612004     0.07100
C204        C  0.13948580  0.07997424  0.97851794    -0.27100
H205        H  0.08459803  0.18658326  0.99135520     0.11800
H206        H  0.05219030  0.19051062  0.04620564     0.13000
H207        H  0.13515716  0.03377245  0.02409984     0.12100
H208        H  0.10193570  0.03746208  0.07839863     0.11300
H209        H  0.06383939  0.06790381  0.11896161     0.16700
H210        H  0.03192980  0.16564123  0.09935046     0.12600
H211        H  0.11978303  0.15441810  0.94864229     0.15500
H212        H  0.15332752  0.05771832  0.97101164     0.15200
C213        C  0.69273218  0.20444081  0.63139529    -0.17600
C214        C  0.66620218  0.22446008  0.64834264    -0.19800
C215        C  0.62538773  0.21668084  0.65049930     0.20800
C216        C  0.61112561  0.18830237  0.63573825    -0.02700
C217        C  0.63796703  0.16798514  0.61871003    -0.05800
C218        C  0.67889279  0.17629320  0.61638107     0.21100
C219        C  0.62387004  0.13952691  0.60386441     0.19300
C220        C  0.58307079  0.13165765  0.60632299    -0.17300
C221        C  0.55640455  0.15193852  0.62305381    -0.19500
C222        C  0.57007146  0.18038145  0.63775365     0.20800
C223        C  0.54346290  0.20118215  0.65416590    -0.32500
C224        C  0.55748393  0.22972895  0.66871718     0.01500
C225        C  0.59862074  0.23702560  0.66691147    -0.23900
C226        C  0.70525406  0.15639967  0.59895507    -0.28400
C227        C  0.69138973  0.12822709  0.58407198     0.07100
C228        C  0.65084450  0.11962853  0.58673586    -0.27100
H229        H  0.72408398  0.21105218  0.62990671     0.11800
H230        H  0.67757967  0.24616919  0.65960729     0.13000
H231        H  0.57173687  0.10991779  0.59513312     0.12100
H232        H  0.52501599  0.14541356  0.62439589     0.11300
H233        H  0.51187952  0.19524191  0.65540427     0.16700
H234        H  0.60991795  0.25890954  0.67788563     0.12600
H235        H  0.73671227  0.16269258  0.59699668     0.15500
H236        H  0.64042551  0.09769721  0.57528603     0.15200
C237        C  0.27403502  0.18477470  0.75525454    -0.17600
C238        C  0.24446171  0.16684621  0.77133859    -0.19800
C239        C  0.24626993  0.16188606  0.80597697     0.20800
C240        C  0.27773658  0.17559380  0.82470258    -0.02700
C241        C  0.30739896  0.19383471  0.80852213    -0.05800
C242        C  0.30574377  0.19820554  0.77356219     0.21100
C243        C  0.33872432  0.20763171  0.82732795     0.19300
C244        C  0.34025308  0.20307234  0.86202603    -0.17300
C245        C  0.31107981  0.18472277  0.87799201    -0.19500
C246        C  0.27984367  0.17080613  0.85955326     0.20800
C247        C  0.25116032  0.15166877  0.87526515    -0.32500
C248        C  0.22021301  0.13728934  0.85668113     0.01500
C249        C  0.21756294  0.14302280  0.82211821    -0.23900
C250        C  0.33554870  0.21624849  0.75766040    -0.28400
C251        C  0.36633596  0.23055361  0.77641506     0.07100
C252        C  0.36780668  0.22602225  0.81119138    -0.27100
H253        H  0.27213107  0.18809880  0.72844545     0.11800
H254        H  0.22040660  0.15657718  0.75663829     0.13000
H255        H  0.36407870  0.21357928  0.87676829     0.12100
H256        H  0.31305660  0.18130874  0.90479314     0.11300
H257        H  0.25373989  0.14713826  0.90183591     0.16700
H258        H  0.19336505  0.13253280  0.80772419     0.12600
H259        H  0.33402513  0.22009095  0.73088920     0.15500
H260        H  0.39151754  0.23701107  0.82572739     0.15200
C261        C  0.67642530  0.32321840  0.89481827    -0.17600
C262        C  0.65579522  0.32046624  0.86442280    -0.19800
C263        C  0.61386988  0.31762926  0.86382002     0.20800
C264        C  0.59260156  0.31692446  0.89429177    -0.02700
C265        C  0.61333296  0.31985603  0.92493988    -0.05800
C266        C  0.65544046  0.32334128  0.92521553     0.21100
C267        C  0.59175579  0.32021793  0.95524054     0.19300
C268        C  0.54996207  0.31662086  0.95481694    -0.17300
C269        C  0.52952878  0.31351760  0.92450870    -0.19500
C270        C  0.55048319  0.31403489  0.89415904     0.20800
C271        C  0.52994351  0.31229731  0.86371002    -0.32500
C272        C  0.55062273  0.31364910  0.83308543     0.01500
C273        C  0.59274402  0.31602312  0.83339827    -0.23900
C274        C  0.67555878  0.32805423  0.95576288    -0.28400
C275        C  0.65379867  0.33003424  0.98572674     0.07100
C276        C  0.61212876  0.32530902  0.98536964    -0.27100
H277        H  0.70868085  0.32582298  0.89453524     0.11800
H278        H  0.67269435  0.32093667  0.84126589     0.13000
H279        H  0.53305782  0.31673461  0.97787921     0.12100
H280        H  0.49710773  0.31119903  0.92479238     0.11300
H281        H  0.49747069  0.31043752  0.86396489     0.16700
H282        H  0.60907220  0.31703820  0.80998747     0.12600
H283        H  0.70768462  0.33176394  0.95611224     0.15500
H284        H  0.59547597  0.32659021  0.00857992     0.15200
C285        C  0.73824177  0.23048485  0.12537202    -0.17600
C286        C  0.76271095  0.20954852  0.14311930    -0.19800
C287        C  0.80349019  0.21638398  0.14765757     0.20800
C288        C  0.81981264  0.24473539  0.13454209    -0.02700
C289        C  0.79503679  0.26600891  0.11683583    -0.05800
C290        C  0.75412656  0.25864123  0.11205439     0.21100
C291        C  0.81115220  0.29453644  0.10383505     0.19300
C292        C  0.85195225  0.30139719  0.10858431    -0.17300
C293        C  0.87664054  0.28008714  0.12587074    -0.19500
C294        C  0.86087346  0.25168724  0.13889115     0.20800
C295        C  0.88542038  0.22993140  0.15585465    -0.32500
C296        C  0.86933177  0.20139823  0.16861291     0.01500
C297        C  0.82824144  0.19508285  0.16471959    -0.23900
C298        C  0.72980320  0.27957548  0.09405754    -0.28400
C299        C  0.74559721  0.30794678  0.08123839     0.07100
C300        C  0.78610885  0.31557682  0.08632361    -0.27100
H301        H  0.70683039  0.22462042  0.12199356     0.11800
H302        H  0.74980265  0.18786727  0.15309327     0.13000
H303        H  0.86479918  0.32315559  0.09877206     0.12100
H304        H  0.90811756  0.28580111  0.12901034     0.11300
H305        H  0.91709129  0.23508112  0.15878606     0.16700
H306        H  0.81549950  0.17319573  0.17440128     0.12600
H307        H  0.69830576  0.27408050  0.09029593     0.15500
H308        H  0.79799158  0.33768844  0.07646624     0.15200
C309        C  0.29423228  0.38390491  0.54073127    -0.17600
C310        C  0.31621829  0.38027076  0.57016477    -0.19800
C311        C  0.33264552  0.35060219  0.57857412     0.20800
C312        C  0.32659558  0.32417312  0.55734492    -0.02700
C313        C  0.30441092  0.32783943  0.52755239    -0.05800
C314        C  0.28842517  0.35791550  0.51917762     0.21100
C315        C  0.29906922  0.30165913  0.50578848     0.19300
C316        C  0.31543924  0.27195871  0.51433718    -0.17300
C317        C  0.33727236  0.26829270  0.54399126    -0.19500
C318        C  0.34324203  0.29426975  0.56560898     0.20800
C319        C  0.36586296  0.29104830  0.59509933    -0.32500
C320        C  0.37224814  0.31742934  0.61625217     0.01500
C321        C  0.35532871  0.34704671  0.60769736    -0.23900
C322        C  0.26820314  0.36182385  0.48882530    -0.28400
C323        C  0.26432806  0.33627188  0.46631050     0.07100
C324        C  0.27881727  0.30601111  0.47534143    -0.27100
H325        H  0.28223799  0.40713773  0.53457811     0.11800
H326        H  0.32066070  0.40081377  0.58629349     0.13000
H327        H  0.31172012  0.25161520  0.49786826     0.12100
H328        H  0.34984538  0.24514974  0.54988521     0.11300
H329        H  0.37888703  0.26812867  0.60134720     0.16700
H330        H  0.35990415  0.36764194  0.62373737     0.12600
H331        H  0.25685983  0.38513692  0.48200760     0.15500
H332        H  0.27632986  0.28631984  0.45782937     0.15200
C333        C  0.12012088  0.20053365  0.35553163    -0.17600
C334        C  0.14635955  0.22135746  0.37186918    -0.19800
C335        C  0.15228103  0.25238043  0.35989565     0.20800
C336        C  0.13091468  0.26280414  0.33154683    -0.02700
C337        C  0.10494114  0.24158289  0.31461878    -0.05800
C338        C  0.09975094  0.21029040  0.32662256     0.21100
C339        C  0.08464405  0.25152759  0.28550711     0.19300
C340        C  0.08950211  0.28297745  0.27424507    -0.17300
C341        C  0.11472923  0.30416643  0.29140176    -0.19500
C342        C  0.13598217  0.29420643  0.31982598     0.20800
C343        C  0.16249265  0.31492040  0.33650907    -0.32500
C344        C  0.18522501  0.30440393  0.36417183     0.01500
C345        C  0.17967721  0.27290680  0.37549601    -0.23900
C346        C  0.07463691  0.18908120  0.30940399    -0.28400
C347        C  0.05493221  0.19844484  0.27990974     0.07100
C348        C  0.06003985  0.22981576  0.26812918    -0.27100
H349        H  0.11624417  0.17669259  0.36516727     0.11800
H350        H  0.16227923  0.21306415  0.39387364     0.13000
H351        H  0.07396105  0.29112360  0.25213582     0.12100
H352        H  0.11809412  0.32827526  0.28207896     0.11300
H353        H  0.16531763  0.33925195  0.32781022     0.16700
H354        H  0.19733108  0.26380112  0.39612190     0.12600
H355        H  0.07091539  0.16509661  0.31877494     0.15500
H356        H  0.04465268  0.23740716  0.24569131     0.15200
C357        C  0.26953204  0.45061011  0.28729253    -0.17600
C358        C  0.28940384  0.47561077  0.27119117    -0.19800
C359        C  0.32540869  0.48777505  0.28415270     0.20800
C360        C  0.34169720  0.47453699  0.31355460    -0.02700
C361        C  0.32230024  0.44866398  0.32916579    -0.05800
C362        C  0.28581960  0.43686331  0.31622637     0.21100
C363        C  0.33953789  0.43455950  0.35763302     0.19300
C364        C  0.37535794  0.44688062  0.37082956    -0.17300
C365        C  0.39395918  0.47312722  0.35599645    -0.19500
C366        C  0.37746853  0.48701735  0.32725620     0.20800
C367        C  0.39638041  0.51290937  0.31174950    -0.32500
C368        C  0.38079637  0.52556728  0.28202017     0.01500
C369        C  0.34554102  0.51281743  0.26820822    -0.23900
C370        C  0.26607532  0.41173871  0.33256396    -0.28400
C371        C  0.28313169  0.39726692  0.36100533     0.07100
C372        C  0.32065704  0.40844630  0.37254231    -0.27100
H373        H  0.24160701  0.44185126  0.27696071     0.11800
H374        H  0.27643482  0.48558632  0.24867837     0.13000
H375        H  0.38885815  0.43637131  0.39287553     0.12100
H376        H  0.42139378  0.48233298  0.36676038     0.11300
H377        H  0.42387700  0.52251595  0.32208277     0.16700
H378        H  0.33359616  0.52268949  0.24522885     0.12600
H379        H  0.23718840  0.40397549  0.32334813     0.15500
H380        H  0.33561310  0.39694657  0.39327742     0.15200
C381        C  0.67358596  0.46664101  0.14563129    -0.17600
C382        C  0.65289715  0.49095719  0.16242496    -0.19800
C383        C  0.61126985  0.49436628  0.15852259     0.20800
C384        C  0.59023533  0.47252627  0.13811529    -0.02700
C385        C  0.61102679  0.44807437  0.12122382    -0.05800
C386        C  0.65297105  0.44525995  0.12466992     0.21100
C387        C  0.58975699  0.42664526  0.10058714     0.19300
C388        C  0.54808754  0.42940005  0.09730688    -0.17300
C389        C  0.52756278  0.45358330  0.11394588    -0.19500
C390        C  0.54839386  0.47533536  0.13414264     0.20800
C391        C  0.52798646  0.50010113  0.14998117    -0.32500
C392        C  0.54856487  0.52255861  0.16968409     0.01500
C393        C  0.59028579  0.51937973  0.17418142    -0.23900
C394        C  0.67346840  0.42136125  0.10679258    -0.28400
C395        C  0.65231738  0.40031881  0.08562211     0.07100
C396        C  0.61040571  0.40289694  0.08330536    -0.27100
H397        H  0.70570547  0.46475105  0.14878331     0.11800
H398        H  0.66956436  0.50732966  0.17817930     0.13000
H399        H  0.53140439  0.41301942  0.08158976     0.12100
H400        H  0.49538005  0.45545180  0.11076957     0.11300
H401        H  0.49587602  0.50216813  0.14634523     0.16700
H402        H  0.60637528  0.53638091  0.18961925     0.12600
H403        H  0.70572023  0.41950791  0.10886960     0.15500
H404        H  0.59356945  0.38615955  0.06809277     0.15200
C405        C  0.53838147  0.49775611  0.59449828    -0.17600
C406        C  0.51923975  0.47306478  0.61150096    -0.19800
C407        C  0.54144435  0.45187799  0.63125096     0.20800
C408        C  0.58335018  0.45538852  0.63379043    -0.02700
C409        C  0.60268137  0.48046713  0.61674396    -0.05800
C410        C  0.57999986  0.50174075  0.59708512     0.21100
C411        C  0.64455836  0.48437998  0.61953715     0.19300
C412        C  0.66676477  0.46284755  0.63897049    -0.17300
C413        C  0.64757060  0.43785820  0.65572487    -0.19500
C414        C  0.60587869  0.43395837  0.65344829     0.20800
C415        C  0.58624015  0.40914729  0.67043825    -0.32500
C416        C  0.54435928  0.40570641  0.66817219     0.01500
C417        C  0.52234217  0.42727355  0.64847865    -0.23900
C418        C  0.59924483  0.52678512  0.58055785    -0.28400
C419        C  0.64091035  0.53112306  0.58340250     0.07100
C420        C  0.66343191  0.50979762  0.60296041    -0.27100
H421        H  0.52057594  0.51388203  0.57943569     0.11800
H422        H  0.48700877  0.47056315  0.60925636     0.13000
H423        H  0.69889863  0.46540661  0.64128517     0.12100
H424        H  0.66542760  0.42160015  0.67065104     0.11300
H425        H  0.60352452  0.39264897  0.68553320     0.16700
H426        H  0.49007654  0.42484394  0.64626486     0.12600
H427        H  0.58159818  0.54335336  0.56585869     0.15500
H428        H  0.69557352  0.51282081  0.60495379     0.15200
C429        C  0.67099013  0.58702085  0.39278259    -0.17600
C430        C  0.65182658  0.59065722  0.36184495    -0.19800
C431        C  0.61318052  0.60380794  0.36003973     0.20800
C432        C  0.59399786  0.61385847  0.38967054    -0.02700
C433        C  0.61329640  0.61022433  0.42080230    -0.05800
C434        C  0.65186282  0.59645194  0.42242003     0.21100
C435        C  0.59347464  0.61957813  0.45040125     0.19300
C436        C  0.55512673  0.63304748  0.44864764    -0.17300
C437        C  0.53603592  0.63664837  0.41785079    -0.19500
C438        C  0.55505738  0.62682000  0.38834926     0.20800
C439        C  0.53522297  0.62900173  0.35768411    -0.32500
C440        C  0.55353652  0.61830612  0.32810978     0.01500
C441        C  0.59290944  0.60630768  0.32930630    -0.23900
C442        C  0.66993802  0.59154050  0.45372584    -0.28400
C443        C  0.64958553  0.60001503  0.48310197     0.07100
C444        C  0.61181623  0.61441514  0.48132340    -0.27100
H445        H  0.70058228  0.57640738  0.39355159     0.11800
H446        H  0.66698782  0.58280494  0.33941493     0.13000
H447        H  0.53960460  0.64036718  0.47118115     0.12100
H448        H  0.50617718  0.64667285  0.41714886     0.11300
H449        H  0.50505036  0.63848511  0.35697229     0.16700
H450        H  0.60711243  0.59786526  0.30664845     0.12600
H451        H  0.69904495  0.58018834  0.45538467     0.15500
H452        H  0.59627883  0.62072447  0.50420558     0.15200
C453        C  0.27239111  0.43151183  0.79398182    -0.17600
C454        C  0.25233715  0.45717606  0.80890214    -0.19800
C455        C  0.27385760  0.48104921  0.82582238     0.20800
C456        C  0.31605443  0.47896365  0.82775123    -0.02700
C457        C  0.33625376  0.45303450  0.81287914    -0.05800
C458        C  0.31431666  0.42921430  0.79583060     0.21100
C459        C  0.37843057  0.45099952  0.81504596     0.19300
C460        C  0.40003627  0.47491743  0.83170712    -0.17300
C461        C  0.38003306  0.50058550  0.84639641    -0.19500
C462        C  0.33813334  0.50271784  0.84468374     0.20800
C463        C  0.31795293  0.52803511  0.85996506    -0.32500
C464        C  0.27593427  0.53006413  0.85873330     0.01500
C465        C  0.25401343  0.50674804  0.84120951    -0.23900
C466        C  0.33479795  0.40369675  0.78078844    -0.28400
C467        C  0.37669465  0.40170700  0.78311643     0.07100
C468        C  0.39832994  0.42520396  0.80030723    -0.27100
H469        H  0.25510397  0.41344891  0.78103150     0.11800
H470        H  0.21996111  0.45833135  0.80722474     0.13000
H471        H  0.43239149  0.47374642  0.83342325     0.12100
H472        H  0.39735276  0.51871550  0.85926611     0.11300
H473        H  0.33495445  0.54618457  0.87315015     0.16700
H474        H  0.22159884  0.50817340  0.84039440     0.12600
H475        H  0.31835921  0.38552999  0.76720383     0.15500
H476        H  0.43071591  0.42363644  0.80162421     0.15200
C477        C  0.31494320  0.54588205  0.06664195    -0.17600
C478        C  0.29397674  0.54266119  0.03659275    -0.19800
C479        C  0.28671865  0.56934496  0.01644714     0.20800
C480        C  0.29954658  0.59974428  0.02711722    -0.02700
C481        C  0.32056360  0.60301709  0.05759101    -0.05800
C482        C  0.32881074  0.57585185  0.07711313     0.21100
C483        C  0.33427479  0.63327254  0.06803403     0.19300
C484        C  0.32594146  0.66006403  0.04826268    -0.17300
C485        C  0.30533001  0.65679228  0.01792244    -0.19500
C486        C  0.29250248  0.62667776  0.00686611     0.20800
C487        C  0.27420464  0.62278059  0.97542071    -0.32500
C488        C  0.26312940  0.59225390  0.96401287     0.01500
C489        C  0.26822071  0.56590099  0.98525220    -0.23900
C490        C  0.35158321  0.57894670  0.10635389    -0.28400
C491        C  0.36641844  0.60884132  0.11657173     0.07100
C492        C  0.35691004  0.63602765  0.09756646    -0.27100
H493        H  0.32088212  0.52480995  0.08145653     0.11800
H494        H  0.28420060  0.51917963  0.02874578     0.13000
H495        H  0.33606426  0.68351820  0.05596054     0.12100
H496        H  0.30004387  0.67775819  0.00280558     0.11300
H497        H  0.27047180  0.64320603  0.95917153     0.16700
H498        H  0.25899766  0.54240647  0.97692025     0.12600
H499        H  0.35832201  0.55783323  0.12088526     0.15500
H500        H  0.36802040  0.65922170  0.10523547     0.15200
C501        C  0.86807296  0.66224794  0.60611821    -0.17600
C502        C  0.84185756  0.64086116  0.59048719    -0.19800
C503        C  0.80026142  0.64428926  0.59404852     0.20800
C504        C  0.78487488  0.66985039  0.61311915    -0.02700
C505        C  0.81136558  0.69151646  0.62876658    -0.05800
C506        C  0.85317914  0.68747734  0.62552680     0.21100
C507        C  0.79602157  0.71701545  0.64786251     0.19300
C508        C  0.75437787  0.72091699  0.65076110    -0.17300
C509        C  0.72812088  0.69939665  0.63534878    -0.19500
C510        C  0.74304005  0.67366784  0.61669610     0.20800
C511        C  0.71697572  0.65170755  0.60149517    -0.32500
C512        C  0.73227307  0.62621330  0.58268854     0.01500
C513        C  0.77378497  0.62265554  0.57887182    -0.23900
C514        C  0.87933336  0.70853564  0.64197834    -0.28400
C515        C  0.86434277  0.73372515  0.66158381     0.07100
C516        C  0.82254263  0.73797481  0.66401115    -0.27100
H517        H  0.90011201  0.65891575  0.60320065     0.11800
H518        H  0.85412428  0.62148643  0.57578374     0.13000
H519        H  0.74211401  0.74046902  0.66519608     0.12100
H520        H  0.69609455  0.70279451  0.63815991     0.11300
H521        H  0.68478934  0.65452713  0.60395013     0.16700
H522        H  0.78532969  0.60310160  0.56396393     0.12600
H523        H  0.91145374  0.70520720  0.63956104     0.15500
H524        H  0.81053388  0.75739374  0.67881092     0.15200
C525        C  0.06515420  0.64026435  0.79097814    -0.17600
C526        C  0.09117380  0.61953171  0.80778218    -0.19800
C527        C  0.12274372  0.63151504  0.82736810     0.20800
C528        C  0.12761921  0.66477821  0.83064165    -0.02700
C529        C  0.10129593  0.68570274  0.81382916    -0.05800
C530        C  0.07021614  0.67342565  0.79352462     0.21100
C531        C  0.10636663  0.71891838  0.81713403     0.19300
C532        C  0.13746385  0.73098276  0.83715458    -0.17300
C533        C  0.16362234  0.71027323  0.85359211    -0.19500
C534        C  0.15904897  0.67718600  0.85046044     0.20800
C535        C  0.18552065  0.65632242  0.86657668    -0.32500
C536        C  0.18122627  0.62313525  0.86319913     0.01500
C537        C  0.14965161  0.61091573  0.84357529    -0.23900
C538        C  0.04496659  0.69452926  0.77601511    -0.28400
C539        C  0.05003226  0.72769962  0.77929630     0.07100
C540        C  0.08050169  0.73959908  0.80018704    -0.27100
H541        H  0.04132744  0.63039263  0.77582998     0.11800
H542        H  0.08677892  0.59402389  0.80518221     0.13000
H543        H  0.14170069  0.75641275  0.83990487     0.12100
H544        H  0.18761055  0.72020114  0.86875062     0.11300
H545        H  0.21004778  0.66595202  0.88134472     0.16700
H546        H  0.14590543  0.58533956  0.84111820     0.12600
H547        H  0.02122637  0.68527121  0.76030718     0.15500
H548        H  0.08456629  0.76510575  0.80275977     0.15200
C549        C  0.76143772  0.96530799  0.63380594    -0.17600
C550        C  0.78008254  0.93904987  0.64863475    -0.19800
C551        C  0.82185625  0.93556700  0.64736558     0.20800
C552        C  0.84510365  0.95874308  0.63070106    -0.02700
C553        C  0.82635131  0.98528730  0.61581539    -0.05800
C554        C  0.78432594  0.98859964  0.61745078     0.21100
C555        C  0.84966981  0.00848580  0.59931986     0.19300
C556        C  0.89142635  0.00492863  0.59775428    -0.17300
C557        C  0.90998894  0.97861449  0.61244262    -0.19500
C558        C  0.88709581  0.95549421  0.62904385     0.20800
C559        C  0.90557102  0.92940042  0.64432771    -0.32500
C560        C  0.88282403  0.90644813  0.66161414     0.01500
C561        C  0.84087172  0.90957642  0.66270719    -0.23900
C562        C  0.76582656  0.01494677  0.60244448    -0.28400
C563        C  0.78880053  0.03793554  0.58562270     0.07100
C564        C  0.83076591  0.03467535  0.58448504    -0.27100
H565        H  0.72919308  0.96744210  0.63516320     0.11800
H566        H  0.76170627  0.92142636  0.66126954     0.13000
H567        H  0.90975107  0.02251721  0.58511014     0.12100
H568        H  0.94230128  0.97640613  0.61095666     0.11300
H569        H  0.93792849  0.92727742  0.64311050     0.16700
H570        H  0.82298931  0.89196593  0.67583653     0.12600
H571        H  0.73351354  0.01716293  0.60311911     0.15500
H572        H  0.84874844  0.05258132  0.57193847     0.15200
C573        C  0.10388731  0.95446438  0.87796277    -0.17600
C574        C  0.08351006  0.92888363  0.86313062    -0.19800
C575        C  0.07171282  0.93036098  0.82947262     0.20800
C576        C  0.08020761  0.95801770  0.81074450    -0.02700
C577        C  0.10053894  0.98384129  0.82573085    -0.05800
C578        C  0.11252651  0.98200438  0.85944737     0.21100
C579        C  0.10858926  0.01158319  0.80698131     0.19300
C580        C  0.09641689  0.01324325  0.77351198    -0.17300
C581        C  0.07651973  0.98761291  0.75861495    -0.19500
C582        C  0.06840867  0.95993202  0.77697891     0.20800
C583        C  0.04893581  0.93408485  0.76199279    -0.32500
C584        C  0.04088905  0.90615090  0.78014435     0.01500
C585        C  0.05190243  0.90460696  0.81410771    -0.23900
C586        C  0.13215838  0.00801807  0.87422306    -0.28400
C587        C  0.13896128  0.03622023  0.85596569     0.07100
C588        C  0.12774368  0.03750817  0.82219825    -0.27100
H589        H  0.11268672  0.95276342  0.90395715     0.11800
H590        H  0.07715601  0.90793165  0.87791700     0.13000
H591        H  0.10223013  0.03442953  0.75883844     0.12100
H592        H  0.06748920  0.98942279  0.73267125     0.11300
H593        H  0.04012907  0.93578111  0.73595453     0.16700
H594        H  0.04553646  0.88335215  0.82840549     0.12600
H595        H  0.14129898  0.00659958  0.90014329     0.15500
H596        H  0.13230877  0.05924589  0.80807740     0.15200
C597        C  0.77219246  0.99019585  0.15357121    -0.17600
C598        C  0.75298365  0.96445305  0.13789252    -0.19800
C599        C  0.77518874  0.94201247  0.11953791     0.20800
C600        C  0.81715109  0.94546083  0.11723504    -0.02700
C601        C  0.83647789  0.97137872  0.13311805    -0.05800
C602        C  0.81391141  0.99399011  0.15131884     0.21100
C603        C  0.87839574  0.97469433  0.13064789     0.19300
C604        C  0.90068079  0.95219223  0.11255138    -0.17300
C605        C  0.88158343  0.92662994  0.09679429    -0.19500
C606        C  0.83986949  0.92313675  0.09885362     0.20800
C607        C  0.82048856  0.89792690  0.08250762    -0.32500
C608        C  0.77857999  0.89464218  0.08396436     0.01500
C609        C  0.75613668  0.91651039  0.10302619    -0.23900
C610        C  0.83356159  0.01981089  0.16691822    -0.28400
C611        C  0.87550289  0.02314600  0.16467404     0.07100
C612        C  0.89745037  0.00038777  0.14632274    -0.27100
H613        H  0.75427244  0.00725829  0.16749454     0.11800
H614        H  0.72080524  0.96218964  0.13994211     0.13000
H615        H  0.93296971  0.95443195  0.11050485     0.12900
H616        H  0.89944701  0.90964769  0.08280491     0.11300
H617        H  0.83811956  0.88079697  0.06845937     0.16700
H618        H  0.72385751  0.91421036  0.10418392     0.12600
H619        H  0.81624661  0.03715004  0.18098391     0.15500
H620        H  0.92975949  0.00254998  0.14418488     0.15200
C621        C  0.74943136  0.83588508  0.89037869    -0.17600
C622        C  0.76962312  0.83333867  0.85983086    -0.19800
C623        C  0.80997041  0.82395620  0.85880443     0.20800
C624        C  0.82998097  0.81650946  0.88890360    -0.02700
C625        C  0.80974343  0.81918207  0.91969263    -0.05800
C626        C  0.76935088  0.82919716  0.92048524     0.21100
C627        C  0.83033875  0.81271063  0.94974931     0.19300
C628        C  0.87040676  0.80273179  0.94881284    -0.17300
C629        C  0.89031851  0.79991662  0.91832301    -0.19500
C630        C  0.87055738  0.80712536  0.88835055     0.20800
C631        C  0.89096527  0.80577947  0.85794053    -0.32500
C632        C  0.87171535  0.81387096  0.82784336     0.01500
C633        C  0.83096564  0.82250592  0.82841987    -0.23900
C634        C  0.75013507  0.83337175  0.95142175    -0.28400
C635        C  0.77128862  0.82822653  0.98126654     0.07100
C636        C  0.81096359  0.81734372  0.98029848    -0.27100
H637        H  0.71850034  0.84357914  0.89052063     0.11800
H638        H  0.75372711  0.83910982  0.83693412     0.13000
H639        H  0.88648301  0.79759628  0.97168706     0.12100
H640        H  0.92152915  0.79256970  0.91822627     0.11300
H641        H  0.92234242  0.79885978  0.85785446     0.16700
H642        H  0.81582871  0.82883216  0.80532861     0.12600
H643        H  0.71954222  0.84193154  0.95239621     0.15500
H644        H  0.82704031  0.81338830  0.00349636     0.15200
C645        C  0.67560434  0.75891595  0.15803519    -0.17600
C646        C  0.64964582  0.73818322  0.17455298    -0.19800
C647        C  0.61359655  0.72869051  0.15947325     0.20800
C648        C  0.60366485  0.73994023  0.12730887    -0.02700
C649        C  0.63013847  0.76060551  0.11046286    -0.05800
C650        C  0.66604931  0.77033921  0.12612637     0.21100
C651        C  0.62068589  0.77156838  0.07807534     0.19300
C652        C  0.58488928  0.76156343  0.06279561    -0.17300
C653        C  0.55838273  0.74134016  0.07968386    -0.19500
C654        C  0.56733857  0.73054659  0.11202173     0.20800
C655        C  0.54096044  0.71033618  0.12930581    -0.32500
C656        C  0.55114985  0.69873541  0.16113743     0.01500
C657        C  0.58747954  0.70796941  0.17598286    -0.23900
C658        C  0.69177775  0.79138694  0.10969149    -0.28400
C659        C  0.68244960  0.80280875  0.07766714     0.07100
C660        C  0.64709326  0.79246900  0.06174644    -0.27100
H661        H  0.70321475  0.76608554  0.17028485     0.11800
H662        H  0.65767287  0.72966384  0.19919065     0.13000
H663        H  0.57725066  0.76960039  0.03788419     0.12100
H664        H  0.53079165  0.73412567  0.06742326     0.11300
H665        H  0.51308324  0.70284481  0.11763355     0.16700
H666        H  0.59531380  0.69905888  0.20054529     0.12600
H667        H  0.71951996  0.79864519  0.12171529     0.15500
H668        H  0.63989563  0.80112287  0.03694096     0.15200
C669        C  0.12681694  0.96682110  0.26468230    -0.17600
C670        C  0.14289096  0.93941728  0.27936060    -0.19800
C671        C  0.12278823  0.92416313  0.30565921     0.20800
C672        C  0.08596556  0.93650345  0.31706721    -0.02700
C673        C  0.07039308  0.96470551  0.30303305    -0.05800
C674        C  0.09079184  0.97981820  0.27654321     0.21100
C675        C  0.03449405  0.97780928  0.31560092     0.19300
C676        C  0.01373899  0.96207552  0.34117119    -0.17300
C677        C  0.02860124  0.93363361  0.35436847    -0.19500
C678        C  0.06489132  0.92089371  0.34276432     0.20800
C679        C  0.08081429  0.89318895  0.35695864    -0.32500
C680        C  0.11889963  0.88173654  0.34746616     0.01500
C681        C  0.13934246  0.89729397  0.32128674    -0.23900
C682        C  0.07465535  0.00754351  0.26235796    -0.28400
C683        C  0.03935962  0.02089468  0.27529167     0.07100
C684        C  0.01968626  0.00622474  0.30212722    -0.27100
H685        H  0.14281652  0.97807769  0.24435084     0.11800
H686        H  0.17111917  0.93015545  0.27014210     0.13000
H687        H  0.98600275  0.97168411  0.35085956     0.12100
H688        H  0.01204867  0.92190900  0.37412808     0.11300
H689        H  0.06360744  0.88095254  0.37592228     0.16700
H690        H  0.16880521  0.88936265  0.31365170     0.12600
H691        H  0.08957983  0.01888246  0.24146966     0.15500
H692        H  0.99204398  0.01627354  0.31156649     0.15200
C693        C  0.08608708  0.75751370  0.54654646    -0.17600
C694        C  0.10211843  0.75954611  0.51428870    -0.19800
C695        C  0.11368813  0.78911041  0.50106806     0.20800
C696        C  0.11026527  0.81675444  0.52104613    -0.02700
C697        C  0.09415587  0.81468962  0.55360276    -0.05800
C698        C  0.08133264  0.78499934  0.56622122     0.21100
C699        C  0.08963649  0.84252265  0.57305681     0.19300
C700        C  0.10233990  0.87195020  0.56030561    -0.17300
C701        C  0.11825592  0.87401210  0.52811402    -0.19500
C702        C  0.12172712  0.84664306  0.50813279     0.20800
C703        C  0.13528051  0.84887027  0.47512848    -0.32500
C704        C  0.13711223  0.82171424  0.45449460     0.01500
C705        C  0.12729299  0.79174957  0.46793698    -0.23900
C706        C  0.06267372  0.78354995  0.59768958    -0.28400
C707        C  0.05641701  0.81145372  0.61660505     0.07100
C708        C  0.07114609  0.84067010  0.60438592    -0.27100
H709        H  0.07661147  0.73446890  0.55587461     0.11800
H710        H  0.10471434  0.73803283  0.49938633     0.13000
H711        H  0.09918081  0.89356202  0.57501720     0.12100
H712        H  0.12708550  0.89709484  0.51858588     0.11300
H713        H  0.14364150  0.87193876  0.46520035     0.16700
H714        H  0.12856909  0.77069186  0.45215941     0.12600
H715        H  0.05160443  0.76086019  0.60682442     0.15500
H716        H  0.06683886  0.86239442  0.61871260     0.15200
C717        C  0.34151865  0.73012811  0.35957623    -0.17600
C718        C  0.31154342  0.74834041  0.37486000    -0.19800
C719        C  0.27933618  0.76021149  0.35602363     0.20800
C720        C  0.27761804  0.75404949  0.32140588    -0.02700
C721        C  0.30832343  0.73629174  0.30584785    -0.05800
C722        C  0.34011243  0.72388797  0.32512348     0.21100
C723        C  0.30686114  0.73056195  0.27109780     0.19300
C724        C  0.27468813  0.74242137  0.25229169    -0.17300
C725        C  0.24390070  0.75948902  0.26781693    -0.19500
C726        C  0.24508575  0.76539470  0.30234141     0.20800
C727        C  0.21424061  0.78243816  0.31805104    -0.32500
C728        C  0.21599939  0.78944388  0.35250626     0.01500
C729        C  0.24893583  0.77821568  0.37122004    -0.23900
C730        C  0.36942859  0.70494314  0.30969713    -0.28400
C731        C  0.36783019  0.69886819  0.27512825     0.07100
C732        C  0.33701233  0.71238137  0.25588833    -0.27100
H733        H  0.36575775  0.72085990  0.37473631     0.11800
H734        H  0.31333598  0.75285288  0.40146335     0.13000
H735        H  0.27305281  0.73814439  0.22561317     0.12100
H736        H  0.21919980  0.76812568  0.25280059     0.11300
H737        H  0.18883383  0.79008337  0.30331086     0.16700
H738        H  0.25144173  0.78387404  0.39752362     0.12600
H739        H  0.39327064  0.69465692  0.32459227     0.15500
H740        H  0.33545016  0.70748316  0.22930852     0.15200
loop_ 
_geom_bond_atom_site_label_1 
_geom_bond_atom_site_label_2 
_geom_bond_distance 
_geom_bond_site_symmetry_2 
_ccdc_geom_bond_type 
C1            C2   1.411       .  A
C1            C6   1.410       .  A
C1          C728   1.496       .  S
C2            C3   1.408       .  A
C2            H7   1.078       .  S
C3            C4   1.406       .  A
C3          C680   1.499       .  S
C4            C5   1.402       .  A
C4            H8   1.083       .  S
C5            C6   1.403       .  A
C5          C704   1.487       .  S
C6            H9   1.082       .  S
C10          C11   1.410       .  A
C10          C15   1.405       .  A
C10         C659   1.481       .  S
C11          C12   1.404       .  A
C11          H16   1.084       .  S
C12          C13   1.403       .  A
C12         C608   1.487       .  S
C13          C14   1.400       .  A
C13          H17   1.084       .  S
C14          C15   1.400       .  A
C14         C635   1.471   1_554  S
C15          H18   1.084       .  S
O19          C35   1.273       .  A
O19         Zn25   1.995       .  S
C20         C539   1.481       .  S
C20          O36   1.274       .  A
C20          O33   1.279       .  A
O21          C34   1.273       .  A
O21         Cd28   2.054   1_455  S
O22          C40   1.279       .  A
O22         Cd31   2.101   1_455  S
O23          C37   1.276       .  A
O23         Cd27   2.068       .  S
O24          C35   1.276       .  A
O24         Cd27   2.083       .  S
Zn25         O36   2.007   1_655  S
Zn25         O38   2.028   1_655  S
Zn25         O30   1.936       .  S
O26          C37   1.279       .  A
O26         Cd31   2.086       .  S
Cd27         O29   2.087       .  S
Cd27         O30   2.011       .  S
Cd28         O32   2.048       .  S
Cd28         O41   2.054   1_655  S
Cd28         O30   1.981       .  S
O29          C39   1.277       .  A
O30         Cd31   2.012       .  S
Cd31         O33   2.103   1_655  S
O32          C39   1.272       .  A
C34         C584   1.482       .  S
C34          O38   1.274       .  A
C35         C632   1.481       .  S
C37         C515   1.486       .  S
C39         C560   1.483       .  S
C40         C707   1.488       .  S
C40          O41   1.274       .  A
C42          C43   1.411       .  A
C42          C47   1.410       .  A
C42         C536   1.487       .  S
C43          C44   1.405       .  A
C43          H48   1.084       .  S
C44          C45   1.402       .  A
C44         C488   1.487       .  S
C45          C46   1.400       .  A
C45          H49   1.085       .  S
C46          C47   1.404       .  A
C46         C464   1.482       .  S
C47          H50   1.083       .  S
C51          C52   1.402       .  A
C51          C56   1.406       .  A
C51         C512   1.472       .  S
C52          C53   1.398       .  A
C52          H57   1.084       .  S
C53          C54   1.399       .  A
C53         C443   1.468       .  S
C54          C55   1.404       .  A
C54          H58   1.085       .  S
C55          C56   1.408       .  A
C55         C419   1.485       .  S
C56          H59   1.083       .  S
O60          C76   1.272       .  A
O60         Zn66   1.995       .  S
C61         C731   1.477       .  S
C61          O77   1.275       .  A
C61          O74   1.277       .  A
O62          C75   1.272       .  A
O62         Cd69   2.056       .  S
O63          C81   1.275       .  A
O63         Cd72   2.084       .  S
O64          C78   1.276       .  A
O64         Cd68   2.066       .  S
O65          C76   1.274       .  A
O65         Cd68   2.080       .  S
Zn66         O77   2.013       .  S
Zn66         O79   2.027       .  S
Zn66         O71   1.937       .  S
O67          C78   1.277       .  A
O67         Cd72   2.080       .  S
Cd68         O70   2.082       .  S
Cd68         O71   2.011       .  S
Cd69         O73   2.052       .  S
Cd69         O82   2.060       .  S
Cd69         O71   1.986       .  S
O70          C80   1.276       .  A
O71         Cd72   2.009       .  S
Cd72         O74   2.080       .  S
O73          C80   1.274       .  A
C75         C368   1.470       .  S
C75          O79   1.274       .  A
C76         C440   1.479       .  S
C78         C656   1.473       .  S
C80         C392   1.482       .  S
C81         C491   1.485       .  S
C81          O82   1.274       .  A
C83          C84   1.415       .  A
C83          C88   1.412       .  A
C83         C344   1.500       .  S
C84          C85   1.412       .  A
C84          H89   1.080       .  S
C85          C86   1.404       .  A
C85         C371   1.500       .  S
C86          C87   1.398       .  A
C86          H90   1.080       .  S
C87          C88   1.399       .  A
C87         C323   1.482       .  S
C88          H91   1.082       .  S
C92          C93   1.405       .  A
C92          C97   1.404       .  A
C92         C299   1.468       .  S
C93          C94   1.400       .  A
C93          H98   1.084       .  S
C94          C95   1.401       .  A
C94         C275   1.478   1_554  S
C95          C96   1.406       .  A
C95          H99   1.084       .  S
C96          C97   1.404       .  A
C96         C395   1.487       .  S
C97         H100   1.083       .  S
O101        C117   1.273       .  A
O101       Zn107   1.994       .  S
C102        C272   1.487       .  S
C102        O118   1.273       .  A
C102        O115   1.277       .  A
O103        C116   1.270       .  A
O103       Cd110   2.055       .  S
O104        C122   1.277       .  A
O104       Cd113   2.092       .  S
O105        C119   1.279       .  A
O105       Cd109   2.091       .  S
O106        C117   1.278       .  A
O106       Cd109   2.086       .  S
Zn107       O118   2.001       .  S
Zn107       O120   2.025       .  S
Zn107       O112   1.934       .  S
O108        C119   1.277       .  A
O108       Cd113   2.070       .  S
Cd109       O111   2.096       .  S
Cd109       O112   2.018       .  S
Cd110       O114   2.042       .  S
Cd110       O123   2.043       .  S
Cd110       O112   1.982       .  S
O111        C121   1.277       .  A
O112       Cd113   2.009       .  S
Cd113       O115   2.093       .  S
O114        C121   1.272       .  A
C116        C467   1.464       .  S
C116        O120   1.273       .  A
C117        C251   1.474       .  S
C119        C224   1.487       .  S
C121        C320   1.484       .  S
C122        C416   1.483       .  S
C122        O123   1.272       .  A
C124        C125   1.409       .  A
C124        C129   1.407       .  A
C124        C248   1.483       .  S
C125        C126   1.405       .  A
C125        H130   1.083       .  S
C126        C127   1.396       .  A
C126        C587   1.483       .  S
C127        C128   1.398       .  A
C127        H131   1.084       .  S
C128        C129   1.400       .  A
C128        C203   1.473       .  S
C129        H132   1.083       .  S
C133        C134   1.404       .  A
C133        C138   1.405       .  A
C133        C227   1.470       .  S
C134        C135   1.404       .  A
C134        H139   1.084       .  S
C135        C136   1.400       .  A
C135        C563   1.483       .  S
C136        C137   1.403       .  A
C136        H140   1.084       .  S
C137        C138   1.401       .  A
C137        C176   1.478       .  S
C138        H141   1.084       .  S
O142        C158   1.275       .  A
O142       Zn148   2.019   1_455  S
C143        C179   1.481       .  S
C143        O159   1.272       .  A
C143        O156   1.276       .  A
O144        C157   1.271       .  A
O144       Cd151   2.056   1_455  S
O145        C163   1.278       .  A
O145       Cd154   2.106       .  S
O146        C160   1.274       .  A
O146       Cd150   2.056       .  S
O147        C158   1.276       .  A
O147       Cd150   2.082   1_455  S
Zn148       O159   1.979       .  S
Zn148       O161   2.018   1_655  S
Zn148       O153   1.921       .  S
O149        C160   1.277       .  A
O149       Cd154   2.066       .  S
Cd150       O152   2.073   1_655  S
Cd150       O153   2.008       .  S
Cd151       O155   2.033   1_655  S
Cd151       O164   2.051       .  S
Cd151       O153   1.978       .  S
O152        C162   1.275       .  A
O153       Cd154   2.015       .  S
Cd154       O156   2.088       .  S
O155        C162   1.272       .  A
C157        C683   1.467       .  S
C157        O161   1.273       .  A
C158        C347   1.486       .  S
C160        C296   1.478       .  S
C162        C200   1.472       .  S
C163        C611   1.489       .  S
C163        O164   1.273       .  A
C165        C166   1.393       .  A
C165        C170   1.401       .  A
C165        H181   1.086       .  S
C166        C167   1.401       .  A
C166        H182   1.083       .  S
C167        C177   1.394       .  A
C167        C168   1.411       .  A
C168        C174   1.412       .  A
C168        C169   1.410       .  A
C169        C171   1.413       .  A
C169        C170   1.410       .  A
C170        C178   1.392       .  A
C171        C180   1.408       .  A
C171        C172   1.404       .  A
C172        C173   1.403       .  A
C172        H183   1.086       .  S
C173        C174   1.406       .  A
C173        H184   1.082       .  S
C174        C175   1.408       .  A
C175        C176   1.408       .  A
C175        H185   1.083       .  S
C176        C177   1.403       .  A
C177        H186   1.085       .  S
C178        C179   1.407       .  A
C178        H187   1.086       .  S
C179        C180   1.409       .  A
C180        H188   1.086       .  S
C189        C190   1.400       .  A
C189        C194   1.404   1_554  A
C189        H205   1.084   1_554  S
C190        C191   1.404       .  A
C190        H206   1.082       .  S
C191        C201   1.404       .  A
C191        C192   1.411       .  A
C192        C198   1.410       .  A
C192        C193   1.407       .  A
C193        C195   1.410       .  A
C193        C194   1.413   1_554  A
C194        C202   1.404       .  A
C195        C204   1.392   1_554  A
C195        C196   1.401       .  A
C196        C197   1.393       .  A
C196        H207   1.084       .  S
C197        C198   1.401       .  A
C197        H208   1.083       .  S
C198        C199   1.393       .  A
C199        C200   1.404       .  A
C199        H209   1.084       .  S
C200        C201   1.407       .  A
C201        H210   1.083       .  S
C202        C203   1.405       .  A
C202        H211   1.084       .  S
C203        C204   1.403       .  A
C204        H212   1.084       .  S
C213        C214   1.396       .  A
C213        C218   1.402       .  A
C213        H229   1.084       .  S
C214        C215   1.403       .  A
C214        H230   1.084       .  S
C215        C225   1.399       .  A
C215        C216   1.410       .  A
C216        C222   1.412       .  A
C216        C217   1.412       .  A
C217        C219   1.413       .  A
C217        C218   1.412       .  A
C218        C226   1.399       .  A
C219        C228   1.406       .  A
C219        C220   1.404       .  A
C220        C221   1.402       .  A
C220        H231   1.083       .  S
C221        C222   1.405       .  A
C221        H232   1.084       .  S
C222        C223   1.408       .  A
C223        C224   1.410       .  A
C223        H233   1.084       .  S
C224        C225   1.408       .  A
C225        H234   1.084       .  S
C226        C227   1.401       .  A
C226        H235   1.085       .  S
C227        C228   1.404       .  A
C228        H236   1.084       .  S
C237        C238   1.399       .  A
C237        C242   1.403       .  A
C237        H253   1.084       .  S
C238        C239   1.404       .  A
C238        H254   1.083       .  S
C239        C249   1.402       .  A
C239        C240   1.411       .  A
C240        C246   1.411       .  A
C240        C241   1.410       .  A
C241        C243   1.410       .  A
C241        C242   1.413       .  A
C242        C250   1.404       .  A
C243        C252   1.399       .  A
C243        C244   1.403       .  A
C244        C245   1.397       .  A
C244        H255   1.082       .  S
C245        C246   1.402       .  A
C245        H256   1.085       .  S
C246        C247   1.400       .  A
C247        C248   1.407       .  A
C247        H257   1.084       .  S
C248        C249   1.407       .  A
C249        H258   1.084       .  S
C250        C251   1.405       .  A
C250        H259   1.085       .  S
C251        C252   1.406       .  A
C252        H260   1.083       .  S
C261        C262   1.401       .  A
C261        C266   1.405       .  A
C261        H277   1.082       .  S
C262        C263   1.404       .  A
C262        H278   1.086       .  S
C263        C273   1.408       .  A
C263        C264   1.412       .  A
C264        C270   1.411       .  A
C264        C265   1.413       .  A
C265        C267   1.411       .  A
C265        C266   1.413       .  A
C266        C274   1.407       .  A
C267        C276   1.399       .  A
C267        C268   1.403       .  A
C268        C269   1.396       .  A
C268        H279   1.082       .  S
C269        C270   1.403       .  A
C269        H280   1.086       .  S
C270        C271   1.399       .  A
C271        C272   1.409       .  A
C271        H281   1.086       .  S
C272        C273   1.409       .  A
C273        H282   1.085       .  S
C274        C275   1.405       .  A
C274        H283   1.083       .  S
C275        C276   1.404       .  A
C276        H284   1.084   1_556  S
C285        C286   1.395       .  A
C285        C290   1.402       .  A
C285        H301   1.085       .  S
C286        C287   1.402       .  A
C286        H302   1.084       .  S
C287        C297   1.397       .  A
C287        C288   1.411       .  A
C288        C294   1.411       .  A
C288        C289   1.409       .  A
C289        C291   1.413       .  A
C289        C290   1.412       .  A
C290        C298   1.397       .  A
C291        C300   1.404       .  A
C291        C292   1.404       .  A
C292        C293   1.400       .  A
C292        H303   1.083       .  S
C293        C294   1.404       .  A
C293        H304   1.084       .  S
C294        C295   1.403       .  A
C295        C296   1.409       .  A
C295        H305   1.085       .  S
C296        C297   1.405       .  A
C297        H306   1.085       .  S
C298        C299   1.401       .  A
C298        H307   1.086       .  S
C299        C300   1.403       .  A
C300        H308   1.084       .  S
C309        C310   1.396       .  A
C309        C314   1.402       .  A
C309        H325   1.083       .  S
C310        C311   1.403       .  A
C310        H326   1.086       .  S
C311        C321   1.397       .  A
C311        C312   1.410       .  A
C312        C318   1.413       .  A
C312        C313   1.411       .  A
C313        C315   1.411       .  A
C313        C314   1.412       .  A
C314        C322   1.399       .  A
C315        C324   1.405       .  A
C315        C316   1.404       .  A
C316        C317   1.401       .  A
C316        H327   1.084       .  S
C317        C318   1.404       .  A
C317        H328   1.085       .  S
C318        C319   1.407       .  A
C319        C320   1.408       .  A
C319        H329   1.086       .  S
C320        C321   1.409       .  A
C321        H330   1.086       .  S
C322        C323   1.405       .  A
C322        H331   1.085       .  S
C323        C324   1.407       .  A
C324        H332   1.085       .  S
C333        C334   1.397       .  A
C333        C338   1.403       .  A
C333        H349   1.081       .  S
C334        C335   1.402       .  A
C334        H350   1.086       .  S
C335        C345   1.401       .  A
C335        C336   1.410       .  A
C336        C342   1.410       .  A
C336        C337   1.413       .  A
C337        C339   1.411       .  A
C337        C338   1.410       .  A
C338        C346   1.401       .  A
C339        C348   1.408       .  A
C339        C340   1.405       .  A
C340        C341   1.402       .  A
C340        H351   1.081       .  S
C341        C342   1.405       .  A
C341        H352   1.085       .  S
C342        C343   1.406       .  A
C343        C344   1.413       .  A
C343        H353   1.084       .  S
C344        C345   1.411       .  A
C345        H354   1.084       .  S
C346        C347   1.408       .  A
C346        H355   1.082       .  S
C347        C348   1.410       .  A
C348        H356   1.083       .  S
C357        C358   1.400       .  A
C357        C362   1.404       .  A
C357        H373   1.083       .  S
C358        C359   1.403       .  A
C358        H374   1.084       .  S
C359        C369   1.402       .  A
C359        C360   1.411       .  A
C360        C366   1.413       .  A
C360        C361   1.411       .  A
C361        C363   1.408       .  A
C361        C362   1.411       .  A
C362        C370   1.406       .  A
C363        C372   1.399       .  A
C363        C364   1.404       .  A
C364        C365   1.398       .  A
C364        H375   1.085       .  S
C365        C366   1.403       .  A
C365        H376   1.082       .  S
C366        C367   1.403       .  A
C367        C368   1.404       .  A
C367        H377   1.083       .  S
C368        C369   1.404       .  A
C369        H378   1.085       .  S
C370        C371   1.411       .  A
C370        H379   1.081       .  S
C371        C372   1.413       .  A
C372        H380   1.083       .  S
C381        C382   1.403       .  A
C381        C386   1.406       .  A
C381        H397   1.082       .  S
C382        C383   1.405       .  A
C382        H398   1.084       .  S
C383        C393   1.409       .  A
C383        C384   1.412       .  A
C384        C390   1.410       .  A
C384        C385   1.411       .  A
C385        C387   1.410       .  A
C385        C386   1.411       .  A
C386        C394   1.409       .  A
C387        C396   1.395       .  A
C387        C388   1.401       .  A
C388        C389   1.393       .  A
C388        H399   1.084       .  S
C389        C390   1.401       .  A
C389        H400   1.084       .  S
C390        C391   1.395       .  A
C391        C392   1.405       .  A
C391        H401   1.085       .  S
C392        C393   1.410       .  A
C393        H402   1.084       .  S
C394        C395   1.410       .  A
C394        H403   1.082       .  S
C395        C396   1.406       .  A
C396        H404   1.084       .  S
C405        C406   1.396       .  A
C405        C410   1.402       .  A
C405        H421   1.085       .  S
C406        C407   1.403       .  A
C406        H422   1.084       .  S
C407        C417   1.397       .  A
C407        C408   1.409       .  A
C408        C414   1.413       .  A
C408        C409   1.412       .  A
C409        C411   1.411       .  A
C409        C410   1.412       .  A
C410        C418   1.399       .  A
C411        C420   1.407       .  A
C411        C412   1.405       .  A
C412        C413   1.401       .  A
C412        H423   1.081       .  S
C413        C414   1.403       .  A
C413        H424   1.086       .  S
C414        C415   1.407       .  A
C415        C416   1.408       .  A
C415        H425   1.086       .  S
C416        C417   1.408       .  A
C417        H426   1.085       .  S
C418        C419   1.406       .  A
C418        H427   1.085       .  S
C419        C420   1.408       .  A
C420        H428   1.083       .  S
C429        C430   1.402       .  A
C429        C434   1.404       .  A
C429        H445   1.084       .  S
C430        C431   1.405       .  A
C430        H446   1.082       .  S
C431        C441   1.407       .  A
C431        C432   1.412       .  A
C432        C438   1.410       .  A
C432        C433   1.411       .  A
C433        C435   1.413       .  A
C433        C434   1.413       .  A
C434        C442   1.406       .  A
C435        C444   1.397       .  A
C435        C436   1.401       .  A
C436        C437   1.395       .  A
C436        H447   1.085       .  S
C437        C438   1.403       .  A
C437        H448   1.082       .  S
C438        C439   1.397       .  A
C439        C440   1.406       .  A
C439        H449   1.083       .  S
C440        C441   1.408       .  A
C441        H450   1.083       .  S
C442        C443   1.404       .  A
C442        H451   1.084       .  S
C443        C444   1.400       .  A
C444        H452   1.085       .  S
C453        C454   1.401       .  A
C453        C458   1.404       .  A
C453        H469   1.083       .  S
C454        C455   1.404       .  A
C454        H470   1.083       .  S
C455        C465   1.407       .  A
C455        C456   1.413       .  A
C456        C462   1.411       .  A
C456        C457   1.411       .  A
C457        C459   1.413       .  A
C457        C458   1.412       .  A
C458        C466   1.406       .  A
C459        C468   1.400       .  A
C459        C460   1.402       .  A
C460        C461   1.397       .  A
C460        H471   1.083       .  S
C461        C462   1.403       .  A
C461        H472   1.084       .  S
C462        C463   1.398       .  A
C463        C464   1.406       .  A
C463        H473   1.085       .  S
C464        C465   1.407       .  A
C465        H474   1.084       .  S
C466        C467   1.404       .  A
C466        H475   1.084       .  S
C467        C468   1.400       .  A
C468        H476   1.084       .  S
C477        C478   1.397       .  A
C477        C482   1.403       .  A
C477        H493   1.084       .  S
C478        C479   1.403       .  A
C478        H494   1.083       .  S
C479        C489   1.399   1_554  A
C479        C480   1.410       .  A
C480        C486   1.412       .  A
C480        C481   1.412       .  A
C481        C483   1.411       .  A
C481        C482   1.411       .  A
C482        C490   1.400       .  A
C483        C492   1.406       .  A
C483        C484   1.404       .  A
C484        C485   1.401       .  A
C484        H495   1.084       .  S
C485        C486   1.404       .  A
C485        H496   1.084       .  S
C486        C487   1.407   1_554  A
C487        C488   1.408       .  A
C487        H497   1.085       .  S
C488        C489   1.407       .  A
C489        H498   1.084       .  S
C490        C491   1.408       .  A
C490        H499   1.085       .  S
C491        C492   1.409       .  A
C492        H500   1.085       .  S
C501        C502   1.399       .  A
C501        C506   1.403       .  A
C501        H517   1.085       .  S
C502        C503   1.403       .  A
C502        H518   1.083       .  S
C503        C513   1.403       .  A
C503        C504   1.412       .  A
C504        C510   1.413       .  A
C504        C505   1.412       .  A
C505        C507   1.410       .  A
C505        C506   1.412       .  A
C506        C514   1.404       .  A
C507        C516   1.403       .  A
C507        C508   1.404       .  A
C508        C509   1.399       .  A
C508        H519   1.083       .  S
C509        C510   1.403       .  A
C509        H520   1.084       .  S
C510        C511   1.404       .  A
C511        C512   1.404       .  A
C511        H521   1.085       .  S
C512        C513   1.402       .  A
C513        H522   1.085       .  S
C514        C515   1.408       .  A
C514        H523   1.085       .  S
C515        C516   1.410       .  A
C516        H524   1.084       .  S
C525        C526   1.402       .  A
C525        C530   1.405       .  A
C525        H541   1.081       .  S
C526        C527   1.404       .  A
C526        H542   1.085       .  S
C527        C537   1.406       .  A
C527        C528   1.411       .  A
C528        C534   1.412       .  A
C528        C529   1.414       .  A
C529        C531   1.410       .  A
C529        C530   1.413       .  A
C530        C538   1.410       .  A
C531        C540   1.400       .  A
C531        C532   1.404       .  A
C532        C533   1.397       .  A
C532        H543   1.082       .  S
C533        C534   1.402       .  A
C533        H544   1.086       .  S
C534        C535   1.402       .  A
C535        C536   1.406       .  A
C535        H545   1.086       .  S
C536        C537   1.409       .  A
C537        H546   1.085       .  S
C538        C539   1.408       .  A
C538        H547   1.082       .  S
C539        C540   1.406       .  A
C540        H548   1.084       .  S
C549        C550   1.399       .  A
C549        C554   1.404       .  A
C549        H565   1.081       .  S
C550        C551   1.403       .  A
C550        H566   1.087       .  S
C551        C561   1.405       .  A
C551        C552   1.413       .  A
C552        C558   1.410       .  A
C552        C553   1.411       .  A
C553        C555   1.412   1_565  A
C553        C554   1.411       .  A
C554        C562   1.403   1_565  A
C555        C564   1.401       .  A
C555        C556   1.403       .  A
C556        C557   1.397   1_545  A
C556        H567   1.085       .  S
C557        C558   1.404       .  A
C557        H568   1.084       .  S
C558        C559   1.399       .  A
C559        C560   1.409       .  A
C559        H569   1.085       .  S
C560        C561   1.407       .  A
C561        H570   1.087       .  S
C562        C563   1.405       .  A
C562        H571   1.083       .  S
C563        C564   1.408       .  A
C564        H572   1.086       .  S
C573        C574   1.401       .  A
C573        C578   1.404       .  A
C573        H589   1.083       .  S
C574        C575   1.404       .  A
C574        H590   1.082       .  S
C575        C585   1.406       .  A
C575        C576   1.412       .  A
C576        C582   1.410       .  A
C576        C577   1.410       .  A
C577        C579   1.413   1_565  A
C577        C578   1.409       .  A
C578        C586   1.402   1_565  A
C579        C588   1.399       .  A
C579        C580   1.401       .  A
C580        C581   1.396   1_545  A
C580        H591   1.084       .  S
C581        C582   1.403       .  A
C581        H592   1.084       .  S
C582        C583   1.398       .  A
C583        C584   1.407       .  A
C583        H593   1.085       .  S
C584        C585   1.409       .  A
C585        H594   1.082       .  S
C586        C587   1.411       .  A
C586        H595   1.083       .  S
C587        C588   1.403       .  A
C588        H596   1.085       .  S
C597        C598   1.402       .  A
C597        C602   1.404       .  A
C597        H613   1.087   1_565  S
C598        C599   1.405       .  A
C598        H614   1.081       .  S
C599        C609   1.407       .  A
C599        C600   1.411       .  A
C600        C606   1.412       .  A
C600        C601   1.413       .  A
C601        C603   1.409       .  A
C601        C602   1.413       .  A
C602        C610   1.410   1_565  A
C603        C612   1.398   1_565  A
C603        C604   1.403       .  A
C604        C605   1.396       .  A
C604        H615   1.085       .  S
C605        C606   1.402       .  A
C605        H616   1.085       .  S
C606        C607   1.400       .  A
C607        C608   1.406       .  A
C607        H617   1.086       .  S
C608        C609   1.409       .  A
C609        H618   1.082       .  S
C610        C611   1.409       .  A
C610        H619   1.086       .  S
C611        C612   1.410       .  A
C612        H620   1.085       .  S
C621        C622   1.401       .  A
C621        C626   1.404       .  A
C621        H637   1.082       .  S
C622        C623   1.404       .  A
C622        H638   1.086       .  S
C623        C633   1.406       .  A
C623        C624   1.412       .  A
C624        C630   1.411       .  A
C624        C625   1.410       .  A
C625        C627   1.412       .  A
C625        C626   1.413       .  A
C626        C634   1.406       .  A
C627        C636   1.397       .  A
C627        C628   1.402       .  A
C628        C629   1.395       .  A
C628        H639   1.083       .  S
C629        C630   1.402       .  A
C629        H640   1.086       .  S
C630        C631   1.397       .  A
C631        C632   1.407       .  A
C631        H641   1.087       .  S
C632        C633   1.408       .  A
C633        H642   1.086       .  S
C634        C635   1.404       .  A
C634        H643   1.083       .  S
C635        C636   1.401       .  A
C636        H644   1.085   1_556  S
C645        C646   1.396       .  A
C645        C650   1.402       .  A
C645        H661   1.085       .  S
C646        C647   1.402       .  A
C646        H662   1.083       .  S
C647        C657   1.398       .  A
C647        C648   1.411       .  A
C648        C654   1.412       .  A
C648        C649   1.411       .  A
C649        C651   1.412       .  A
C649        C650   1.411       .  A
C650        C658   1.398       .  A
C651        C660   1.406       .  A
C651        C652   1.405       .  A
C652        C653   1.401       .  A
C652        H663   1.084       .  S
C653        C654   1.404       .  A
C653        H664   1.085       .  S
C654        C655   1.406       .  A
C655        C656   1.406       .  A
C655        H665   1.086       .  S
C656        C657   1.403       .  A
C657        H666   1.084       .  S
C658        C659   1.404       .  A
C658        H667   1.086       .  S
C659        C660   1.408       .  A
C660        H668   1.085       .  S
C669        C670   1.400       .  A
C669        C674   1.403       .  A
C669        H685   1.083       .  S
C670        C671   1.404       .  A
C670        H686   1.084       .  S
C671        C681   1.404       .  A
C671        C672   1.410       .  A
C672        C678   1.409       .  A
C672        C673   1.411       .  A
C673        C675   1.411       .  A
C673        C674   1.412       .  A
C674        C682   1.404   1_565  A
C675        C684   1.400   1_565  A
C675        C676   1.403       .  A
C676        C677   1.398       .  A
C676        H687   1.082   1_455  S
C677        C678   1.403       .  A
C677        H688   1.084       .  S
C678        C679   1.400       .  A
C679        C680   1.411       .  A
C679        H689   1.083       .  S
C680        C681   1.412       .  A
C681        H690   1.082       .  S
C682        C683   1.404       .  A
C682        H691   1.085       .  S
C683        C684   1.403       .  A
C684        H692   1.083   1_455  S
C693        C694   1.401       .  A
C693        C698   1.404       .  A
C693        H709   1.085       .  S
C694        C695   1.404       .  A
C694        H710   1.084       .  S
C695        C705   1.407       .  A
C695        C696   1.412       .  A
C696        C702   1.411       .  A
C696        C697   1.413       .  A
C697        C699   1.411       .  A
C697        C698   1.412       .  A
C698        C706   1.407       .  A
C699        C708   1.401       .  A
C699        C700   1.403       .  A
C700        C701   1.397       .  A
C700        H711   1.085       .  S
C701        C702   1.403       .  A
C701        H712   1.083       .  S
C702        C703   1.400       .  A
C703        C704   1.407       .  A
C703        H713   1.084       .  S
C704        C705   1.408       .  A
C705        H714   1.086       .  S
C706        C707   1.409       .  A
C706        H715   1.086       .  S
C707        C708   1.410       .  A
C708        H716   1.086       .  S
C717        C718   1.400       .  A
C717        C722   1.404       .  A
C717        H733   1.084       .  S
C718        C719   1.404       .  A
C718        H734   1.083       .  S
C719        C729   1.404       .  A
C719        C720   1.410       .  A
C720        C726   1.410       .  A
C720        C721   1.412       .  A
C721        C723   1.412       .  A
C721        C722   1.411       .  A
C722        C730   1.404       .  A
C723        C732   1.402       .  A
C723        C724   1.403       .  A
C724        C725   1.398       .  A
C724        H735   1.084       .  S
C725        C726   1.404       .  A
C725        H736   1.083       .  S
C726        C727   1.403       .  A
C727        C728   1.410       .  A
C727        H737   1.082       .  S
C728        C729   1.411       .  A
C729        H738   1.082       .  S
C730        C731   1.407       .  A
C730        H739   1.084       .  S
C731        C732   1.405       .  A
C732        H740   1.084       .  S
