geometry optimzed in LAMMPS
_audit_creation_date              2020-11-30 
_audit_creation_method            'lammps2cif' 
_symmetry_space_group_name_H-M    'P1' 
_symmetry_Int_Tables_number       1 
_symmetry_cell_setting            triclinic 
loop_ 
_symmetry_equiv_pos_as_xyz 
  x,y,z 
_cell_length_a                    39.75724887 
_cell_length_b                    39.84645585501931 
_cell_length_c                    42.306895000434544 
_cell_angle_alpha                 89.96126670945533 
_cell_angle_beta                  90.01273697004078 
_cell_angle_gamma                 119.52330476744442 
loop_ 
_atom_site_label 
_atom_site_type_symbol 
_atom_site_fract_x 
_atom_site_fract_y 
_atom_site_fract_z 
_atom_site_charge 
O1          O  0.16372641  0.38526989  0.33508238    -0.85100
O2          O  0.09526636  0.32077743  0.35084818    -0.82200
C3          C  0.09350732  0.29581184  0.33143787     0.98300
O4          O  0.11568870  0.28183190  0.33423879    -0.82200
O5          O  0.18004891  0.27678178  0.34983578    -0.84800
C6          C  0.20564284  0.30022421  0.33110911     1.02900
O7          O  0.21982704  0.33605295  0.33466285    -0.77600
O8          O  0.22327603  0.40440201  0.35026550    -0.77800
C9          C  0.19965131  0.40668744  0.33154892     1.02800
O10         O  0.18028658  0.40479711  0.40071160    -0.85100
O11         O  0.11598926  0.33654944  0.41663692    -0.82200
C12         C  0.09387298  0.30074712  0.41957486     0.98400
O13         O  0.09538214  0.27745326  0.40008631    -0.82200
O14         O  0.16371100  0.27991720  0.41554920    -0.84800
C15         C  0.19962605  0.29388086  0.41914513     1.02800
O16         O  0.22328337  0.31950611  0.40051194    -0.77600
O17         O  0.21981116  0.38442484  0.41606617    -0.77800
C18         C  0.20578445  0.40645242  0.41949894     1.02800
Cr19       Cr  0.14076502  0.35985891  0.37578745     1.93700
Cr20       Cr  0.14067611  0.28291568  0.37495500     1.93200
Cr21       Cr  0.21761855  0.35915879  0.37537260     1.39100
O22         O  0.16641532  0.33399941  0.37536974    -1.22900
O23         O  0.40437417  0.17906351  0.14970484    -0.85100
O24         O  0.33595745  0.11450203  0.16543708    -0.82200
C25         C  0.30003946  0.09307555  0.16900669     0.98300
O26         O  0.27638022  0.09539090  0.15035453    -0.82200
O27         O  0.27979596  0.16369519  0.16615795    -0.84800
C28         C  0.29393717  0.19951890  0.16972983     1.02900
O29         O  0.31952589  0.22299548  0.15101963    -0.77600
O30         O  0.38396637  0.21797745  0.16643575    -0.77800
C31         C  0.40615173  0.20398928  0.16916427     1.02800
O32         O  0.38360266  0.16349813  0.08392525    -0.85100
O33         O  0.31932252  0.09518191  0.09977917    -0.82200
C34         C  0.29376667  0.09353602  0.08106356     0.98400
O35         O  0.27969475  0.11550919  0.08461129    -0.82200
O36         O  0.27618071  0.18035031  0.10038333    -0.84800
C37         C  0.29977949  0.20602659  0.08175943     1.02800
O38         O  0.33571004  0.21999266  0.08527360    -0.77600
O39         O  0.40415585  0.22254940  0.10056630    -0.77800
C40         C  0.40571619  0.19931187  0.08105042     1.02800
Cr41       Cr  0.35885651  0.14004796  0.12475265     1.93700
Cr42       Cr  0.28195597  0.14067755  0.12537745     1.93200
Cr43       Cr  0.35887237  0.21695479  0.12579023     1.39100
O44         O  0.33316898  0.16587238  0.12530951    -1.22900
C45         C  0.01669728  0.24594011  0.47335914     0.20600
C46         C  0.98435490  0.21299125  0.98533652    -0.39300
C47         C  0.46815884  0.21852958  0.01291736     0.19600
C48         C  0.48302740  0.25420119  0.02737681     0.22200
C49         C  0.51538134  0.28715682  0.51540154    -0.39800
C50         C  0.03157359  0.28161877  0.48780923     0.21000
N51         N  0.03717918  0.24826906  0.44741940    -0.33100
C52         C  0.06517941  0.28571464  0.44520309    -0.10600
C53         C  0.06268895  0.30745486  0.47000409    -0.29400
N54         N  0.46249278  0.25185587  0.05329234    -0.46000
C55         C  0.43447077  0.21440687  0.05546587    -0.06900
C56         C  0.43700748  0.19268934  0.03067524    -0.22700
H57         H  0.97269170  0.18510594  0.97402215     0.19100
H58         H  0.52703388  0.31504596  0.52670787     0.17900
H59         H  0.08108417  0.33797940  0.47435555     0.14200
H60         H  0.41860973  0.16217209  0.02629475     0.14100
H61         H  0.03221524  0.22580535  0.43200708     0.32200
H62         H  0.46742769  0.27430666  0.06870883     0.35000
C63         C  0.46835538  0.24830015  0.23534155     0.20600
C64         C  0.98309256  0.27229488  0.26189281    -0.39300
C65         C  0.01517129  0.27298496  0.27635669     0.19600
C66         C  0.03130482  0.25138166  0.26526733     0.22200
C67         C  0.51656216  0.22737710  0.23871395    -0.39800
C68         C  0.48447872  0.22668957  0.22424599     0.21000
N69         N  0.43827052  0.24283305  0.21727413    -0.33100
C70         C  0.43522185  0.21755790  0.19451562    -0.10600
C71         C  0.46347159  0.20674728  0.19812557    -0.29400
N72         N  0.06140931  0.25688843  0.28333431    -0.46000
C73         C  0.06444520  0.28218099  0.30607802    -0.05300
C74         C  0.03617507  0.29295505  0.30246135    -0.22700
H75         H  0.97053130  0.28919894  0.27062811     0.19100
H76         H  0.52912904  0.21047979  0.22997437     0.17900
H77         H  0.46818739  0.18720734  0.18344622     0.14200
H78         H  0.03144647  0.31249743  0.31712620     0.14100
H79         H  0.42097547  0.25561081  0.22017120     0.32200
H80         H  0.07872613  0.24413337  0.28044488     0.35000
C81         C  0.24514582  0.01903447  0.22513123     0.20600
C82         C  0.21168595  0.49030966  0.23990259    -0.39300
C83         C  0.21786772  0.47151085  0.26539910     0.19600
C84         C  0.25458052  0.48069019  0.27539965     0.22200
C85         C  0.28804181  0.00941816  0.26062859    -0.39800
C86         C  0.28186014  0.02821433  0.23512780     0.21000
N87         N  0.24703705  0.04099412  0.20037940    -0.33100
C88         C  0.28521169  0.06433907  0.19456268    -0.10600
C89         C  0.30787837  0.05727006  0.21576845    -0.29400
N90         N  0.25268386  0.45873235  0.30015699    -0.46000
C91         C  0.21450666  0.43539106  0.30596870    -0.05300
C92         C  0.19184687  0.44245890  0.28475561    -0.22700
H93         H  0.18297496  0.48312799  0.23210862     0.19100
H94         H  0.31675273  0.01660332  0.26842508     0.17900
H95         H  0.33910820  0.07140131  0.21681037     0.14200
H96         H  0.16061740  0.42833897  0.28371545     0.14100
H97         H  0.22377406  0.04015079  0.18818839     0.32200
H98         H  0.27594252  0.45958155  0.31235945     0.35000
C99         C  0.22548357  0.48079669  0.47549595     0.20600
C100        C  0.22110693  0.00990852  0.49028279    -0.39300
C101        C  0.24649953  0.02877093  0.01537276     0.19600
C102        C  0.27406972  0.01928527  0.02498394     0.22200
C103        C  0.27844618  0.49017892  0.01019809    -0.39800
C104        C  0.25305862  0.47132045  0.48511172     0.21000
N105        N  0.20508432  0.45877577  0.45100837    -0.33100
C106        C  0.21977421  0.43512493  0.44500183    -0.10600
C107        C  0.24969711  0.44200364  0.46581187    -0.29400
N108        N  0.29445936  0.04127673  0.04948253    -0.46000
C109        C  0.27977636  0.06492497  0.05551317    -0.05300
C110        C  0.24986208  0.05807650  0.03469744    -0.22700
H111        H  0.19954539  0.01732094  0.48279810     0.19100
H112        H  0.30000068  0.48275919  0.01768811     0.17900
H113        H  0.26679380  0.42767223  0.46656449     0.14200
H114        H  0.23276548  0.07240864  0.03396415     0.14100
H115        H  0.18261488  0.45983247  0.43906922     0.32200
H116        H  0.31691219  0.04019032  0.06142363     0.35000
C117        C  0.24494205  0.22521697  0.02491858     0.20600
C118        C  0.21159163  0.21989593  0.00916832    -0.39300
C119        C  0.21774449  0.24586246  0.48452728     0.19600
C120        C  0.25433216  0.27482928  0.47620680     0.22200
C121        C  0.28767429  0.28015139  0.49195847    -0.39800
C122        C  0.28152446  0.25418395  0.01658823     0.21000
N123        N  0.24684885  0.20444930  0.04915923    -0.33100
C124        C  0.28491168  0.22023453  0.05626990    -0.10600
C125        C  0.30747694  0.25130312  0.03644144    -0.29400
N126        N  0.25245918  0.29554864  0.45191788    -0.46000
C127        C  0.21441543  0.27973695  0.44474520    -0.05300
C128        C  0.19181756  0.24869925  0.46460135    -0.22700
H129        H  0.18298230  0.19722743  0.01562962     0.19100
H130        H  0.31628685  0.30279640  0.48547801     0.17900
H131        H  0.33859902  0.26938702  0.03662795     0.14200
H132        H  0.16069975  0.23058470  0.46436441     0.14100
H133        H  0.22368589  0.18092206  0.06014534     0.32200
H134        H  0.27564134  0.31904362  0.44091807     0.35000
C135        C  0.22540740  0.24523947  0.27511482     0.20600
C136        C  0.22120690  0.21180803  0.26047609    -0.39300
C137        C  0.24662351  0.21788929  0.23539883     0.19600
C138        C  0.27405859  0.25448016  0.22566050     0.22200
C139        C  0.27825396  0.28791142  0.24029393    -0.39800
C140        C  0.25284178  0.28182950  0.26537353     0.21000
N141        N  0.20501166  0.24721209  0.29961123    -0.33100
C142        C  0.21957252  0.28531295  0.30552596    -0.10600
C143        C  0.24938996  0.30785265  0.28461161    -0.29400
N144        N  0.29448965  0.25250861  0.20119280    -0.46000
C145        C  0.27995797  0.21440779  0.19529421    -0.05300
C146        C  0.25011120  0.19186558  0.21618444    -0.22700
H147        H  0.19976193  0.18319493  0.26806885     0.19100
H148        H  0.29971013  0.31652446  0.23270992     0.17900
H149        H  0.26640570  0.33899932  0.28378533     0.14200
H150        H  0.23310884  0.16071849  0.21701700     0.14100
H151        H  0.18267586  0.22405784  0.31165769     0.32200
H152        H  0.31683876  0.27566561  0.18915909     0.35000
O153        O  0.16372643  0.38526983  0.83508235    -0.85100
O154        O  0.09526628  0.32077738  0.85084823    -0.82200
C155        C  0.09350726  0.29581183  0.83143792     0.98300
O156        O  0.11568864  0.28183187  0.83423881    -0.82200
O157        O  0.18004895  0.27678178  0.84983580    -0.84800
C158        C  0.20564286  0.30022419  0.83110912     1.02900
O159        O  0.21982707  0.33605293  0.83466287    -0.77600
O160        O  0.22327604  0.40440201  0.85026557    -0.77800
C161        C  0.19965133  0.40668740  0.83154893     1.02800
O162        O  0.18028659  0.40479708  0.90071154    -0.85100
O163        O  0.11598922  0.33654941  0.91663689    -0.82200
C164        C  0.09387291  0.30074707  0.91957481     0.98400
O165        O  0.09538206  0.27745322  0.90008628    -0.82200
O166        O  0.16371097  0.27991718  0.91554917    -0.84800
C167        C  0.19962602  0.29388081  0.91914510     1.02800
O168        O  0.22328335  0.31950606  0.90051192    -0.77600
O169        O  0.21981116  0.38442481  0.91606617    -0.77800
C170        C  0.20578445  0.40645239  0.91949891     1.02800
Cr171      Cr  0.14076499  0.35985888  0.87578743     1.93700
Cr172      Cr  0.14067608  0.28291566  0.87495499     1.93200
Cr173      Cr  0.21761854  0.35915875  0.87537262     1.39100
O174        O  0.16641530  0.33399939  0.87536974    -1.22900
O175        O  0.40437431  0.17906362  0.64970478    -0.85100
O176        O  0.33595749  0.11450211  0.66543706    -0.82200
C177        C  0.30003950  0.09307558  0.66900669     0.98300
O178        O  0.27638022  0.09539089  0.65035456    -0.82200
O179        O  0.27979603  0.16369524  0.66615796    -0.84800
C180        C  0.29393724  0.19951894  0.66972982     1.02900
O181        O  0.31952593  0.22299552  0.65101959    -0.77600
O182        O  0.38396640  0.21797745  0.66643574    -0.77800
C183        C  0.40615182  0.20398935  0.66916424     1.02800
O184        O  0.38360263  0.16349811  0.58392520    -0.85100
O185        O  0.31932260  0.09518199  0.59977916    -0.82200
C186        C  0.29376666  0.09353601  0.58106361     0.98400
O187        O  0.27969471  0.11550917  0.58461134    -0.82200
O188        O  0.27618070  0.18035031  0.60038331    -0.84800
C189        C  0.29977949  0.20602657  0.58175938     1.02800
O190        O  0.33571003  0.21999258  0.58527355    -0.77600
O191        O  0.40415588  0.22254933  0.60056635    -0.77800
C192        C  0.40571612  0.19931184  0.58105038     1.02800
Cr193      Cr  0.35885657  0.14004801  0.62475263     1.93700
Cr194      Cr  0.28195598  0.14067756  0.62537748     1.93200
Cr195      Cr  0.35887240  0.21695478  0.62579022     1.39100
O196        O  0.33316900  0.16587238  0.62530953    -1.22900
C197        C  0.01669720  0.24594014  0.97335915     0.20600
C198        C  0.98435497  0.21299124  0.48533649    -0.39300
C199        C  0.46815880  0.21852958  0.51291734     0.19600
C200        C  0.48302730  0.25420119  0.52737676     0.22200
C201        C  0.51538138  0.28715684  0.01540153    -0.39800
C202        C  0.03157356  0.28161878  0.98780923     0.21000
N203        N  0.03717909  0.24826901  0.94741938    -0.33100
C204        C  0.06517937  0.28571461  0.94520309    -0.10600
C205        C  0.06268896  0.30745483  0.97000408    -0.29400
N206        N  0.46249263  0.25185587  0.55329227    -0.46000
C207        C  0.43447062  0.21440685  0.55546578    -0.06900
C208        C  0.43700745  0.19268932  0.53067522    -0.22700
H209        H  0.97269176  0.18510592  0.47402211     0.19100
H210        H  0.52703392  0.31504600  0.02670782     0.17900
H211        H  0.08108423  0.33797938  0.97435550     0.14200
H212        H  0.41860982  0.16217204  0.52629476     0.14100
H213        H  0.03221516  0.22580546  0.93200722     0.32200
H214        H  0.46742753  0.27430654  0.56870874     0.35000
C215        C  0.46835536  0.24830008  0.73534162     0.20600
C216        C  0.98309259  0.27229490  0.76189282    -0.39300
C217        C  0.01517133  0.27298501  0.77635668     0.19600
C218        C  0.03130490  0.25138172  0.76526732     0.22200
C219        C  0.51656222  0.22737713  0.73871396    -0.39800
C220        C  0.48447869  0.22668952  0.72424606     0.21000
N221        N  0.43827055  0.24283307  0.71727416    -0.33100
C222        C  0.43522192  0.21755796  0.69451561    -0.10600
C223        C  0.46347162  0.20674732  0.69812561    -0.29400
N224        N  0.06140931  0.25688846  0.78333434    -0.46000
C225        C  0.06444518  0.28218099  0.80607804    -0.05300
C226        C  0.03617506  0.29295507  0.80246134    -0.22700
H227        H  0.97053135  0.28919898  0.77062809     0.19100
H228        H  0.52912912  0.21047983  0.72997437     0.17900
H229        H  0.46818748  0.18720742  0.68344627     0.14200
H230        H  0.03144641  0.31249745  0.81712614     0.14100
H231        H  0.42097561  0.25561089  0.72017122     0.32200
H232        H  0.07872617  0.24413332  0.78044493     0.35000
C233        C  0.24514584  0.01903448  0.72513121     0.20600
C234        C  0.21168591  0.49030964  0.73990254    -0.39300
C235        C  0.21786767  0.47151082  0.76539908     0.19600
C236        C  0.25458049  0.48069017  0.77539962     0.22200
C237        C  0.28804181  0.00941814  0.76062859    -0.39800
C238        C  0.28186014  0.02821432  0.73512782     0.21000
N239        N  0.24703713  0.04099415  0.70037937    -0.33100
C240        C  0.28521177  0.06433912  0.69456269    -0.10600
C241        C  0.30787839  0.05727008  0.71576851    -0.29400
N242        N  0.25268385  0.45873232  0.80015694    -0.46000
C243        C  0.21450667  0.43539104  0.80596871    -0.05300
C244        C  0.19184684  0.44245891  0.78475566    -0.22700
H245        H  0.18297493  0.48312802  0.73210858     0.19100
H246        H  0.31675272  0.01660332  0.76842511     0.17900
H247        H  0.33910823  0.07140129  0.71681051     0.14200
H248        H  0.16061737  0.42833900  0.78371554     0.14100
H249        H  0.22377417  0.04015078  0.68818829     0.32200
H250        H  0.27594256  0.45958153  0.81235937     0.35000
C251        C  0.22548361  0.48079669  0.97549590     0.20600
C252        C  0.22110693  0.00990851  0.99028272    -0.39300
C253        C  0.24649953  0.02877093  0.51537282     0.19600
C254        C  0.27406975  0.01928530  0.52498394     0.22200
C255        C  0.27844613  0.49017889  0.51019814    -0.39800
C256        C  0.25305867  0.47132044  0.98511167     0.21000
N257        N  0.20508434  0.45877575  0.95100834    -0.33100
C258        C  0.21977419  0.43512490  0.94500180    -0.10600
C259        C  0.24969711  0.44200360  0.96581182    -0.29400
N260        N  0.29445941  0.04127674  0.54948256    -0.46000
C261        C  0.27977633  0.06492493  0.55551324    -0.05300
C262        C  0.24986211  0.05807651  0.53469750    -0.22700
H263        H  0.19954537  0.01732087  0.98279803     0.19100
H264        H  0.30000068  0.48275922  0.51768811     0.17900
H265        H  0.26679379  0.42767218  0.96656439     0.14200
H266        H  0.23276556  0.07240870  0.53396419     0.14100
H267        H  0.18261487  0.45983247  0.93906914     0.32200
H268        H  0.31691213  0.04019030  0.56142357     0.35000
C269        C  0.24494203  0.22521694  0.52491854     0.20600
C270        C  0.21159160  0.21989589  0.50916830    -0.39300
C271        C  0.21774452  0.24586245  0.98452725     0.19600
C272        C  0.25433216  0.27482921  0.97620675     0.22200
C273        C  0.28767429  0.28015134  0.99195846    -0.39800
C274        C  0.28152443  0.25418398  0.51658822     0.21000
N275        N  0.24684886  0.20444927  0.54915916    -0.33100
C276        C  0.28491169  0.22023453  0.55626985    -0.10600
C277        C  0.30747692  0.25130320  0.53644144    -0.29400
N278        N  0.25245918  0.29554857  0.95191782    -0.46000
C279        C  0.21441543  0.27973692  0.94474516    -0.05300
C280        C  0.19181758  0.24869926  0.96460132    -0.22700
H281        H  0.18298225  0.19722737  0.51562954     0.19100
H282        H  0.31628687  0.30279632  0.98547798     0.17900
H283        H  0.33859898  0.26938722  0.53662797     0.14200
H284        H  0.16069977  0.23058476  0.96436441     0.14100
H285        H  0.22368592  0.18092200  0.56014524     0.32200
H286        H  0.27564133  0.31904354  0.94091801     0.35000
C287        C  0.22540741  0.24523946  0.77511476     0.20600
C288        C  0.22120683  0.21180800  0.76047600    -0.39300
C289        C  0.24662346  0.21788925  0.73539876     0.19600
C290        C  0.27405854  0.25448013  0.72566043     0.22200
C291        C  0.27825395  0.28791139  0.74029387    -0.39800
C292        C  0.25284179  0.28182947  0.76537349     0.21000
N293        N  0.20501169  0.24721206  0.79961121    -0.33100
C294        C  0.21957255  0.28531293  0.80552594    -0.10600
C295        C  0.24938999  0.30785262  0.78461158    -0.29400
N296        N  0.29448966  0.25250860  0.70119279    -0.46000
C297        C  0.27995807  0.21440779  0.69529422    -0.05300
C298        C  0.25011122  0.19186555  0.71618442    -0.22700
H299        H  0.19976183  0.18319492  0.76806875     0.19100
H300        H  0.29971016  0.31652442  0.73270989     0.17900
H301        H  0.26640574  0.33899929  0.78378528     0.14200
H302        H  0.23310883  0.16071846  0.71701693     0.14100
H303        H  0.18267600  0.22405788  0.81165762     0.32200
H304        H  0.31683880  0.27566565  0.68915909     0.35000
O305        O  0.16372645  0.88526993  0.33508241    -0.85100
O306        O  0.09526645  0.82077754  0.35084812    -0.82200
C307        C  0.09350742  0.79581194  0.33143783     0.98300
O308        O  0.11568878  0.78183198  0.33423877    -0.82200
O309        O  0.18004891  0.77678179  0.34983574    -0.84800
C310        C  0.20564290  0.80022423  0.33110913     1.02900
O311        O  0.21982716  0.83605296  0.33466290    -0.77600
O312        O  0.22327608  0.90440198  0.35026550    -0.77800
C313        C  0.19965135  0.90668745  0.33154894     1.02800
O314        O  0.18028654  0.90479709  0.40071162    -0.85100
O315        O  0.11598921  0.83654938  0.41663690    -0.82200
C316        C  0.09387293  0.80074705  0.41957484     0.98400
O317        O  0.09538208  0.77745319  0.40008630    -0.82200
O318        O  0.16371096  0.77991725  0.41554922    -0.84800
C319        C  0.19962601  0.79388083  0.41914513     1.02800
O320        O  0.22328334  0.81950605  0.40051193    -0.77600
O321        O  0.21981111  0.88442482  0.41606617    -0.77800
C322        C  0.20578444  0.90645242  0.41949895     1.02800
Cr323      Cr  0.14076503  0.85985891  0.37578745     1.93700
Cr324      Cr  0.14067610  0.78291568  0.37495499     1.93200
Cr325      Cr  0.21761855  0.85915875  0.37537262     1.39100
O326        O  0.16641532  0.83399940  0.37536973    -1.22900
O327        O  0.40437425  0.67906358  0.14970482    -0.85100
O328        O  0.33595747  0.61450209  0.16543710    -0.82200
C329        C  0.30003947  0.59307553  0.16900668     0.98300
O330        O  0.27638021  0.59539084  0.15035453    -0.82200
O331        O  0.27979594  0.66369518  0.16615795    -0.84800
C332        C  0.29393714  0.69951889  0.16972982     1.02900
O333        O  0.31952586  0.72299546  0.15101961    -0.77600
O334        O  0.38396630  0.71797738  0.16643579    -0.77800
C335        C  0.40615176  0.70398929  0.16916427     1.02800
O336        O  0.38360268  0.66349815  0.08392525    -0.85100
O337        O  0.31932257  0.59518195  0.09977914    -0.82200
C338        C  0.29376664  0.59353599  0.08106356     0.98400
O339        O  0.27969466  0.61550911  0.08461131    -0.82200
O340        O  0.27618071  0.68035024  0.10038331    -0.84800
C341        C  0.29977951  0.70602651  0.08175940     1.02800
O342        O  0.33571005  0.71999258  0.08527360    -0.77600
O343        O  0.40415585  0.72254942  0.10056632    -0.77800
C344        C  0.40571618  0.69931189  0.08105042     1.02800
Cr345      Cr  0.35885656  0.64004798  0.12475264     1.93700
Cr346      Cr  0.28195595  0.64067749  0.12537746     1.93200
Cr347      Cr  0.35887234  0.71695474  0.12579025     1.39100
O348        O  0.33316897  0.66587233  0.12530950    -1.22900
C349        C  0.01669726  0.74594010  0.47335915     0.20600
C350        C  0.98435498  0.71299122  0.98533657    -0.39300
C351        C  0.46815882  0.71852957  0.01291739     0.19600
C352        C  0.48302737  0.75420118  0.02737682     0.22200
C353        C  0.51538120  0.78715682  0.51540148    -0.39800
C354        C  0.03157355  0.78161875  0.48780922     0.21000
N355        N  0.03717915  0.74826904  0.44741942    -0.33100
C356        C  0.06517937  0.78571458  0.44520308    -0.10600
C357        C  0.06268889  0.80745481  0.47000405    -0.29400
N358        N  0.46249275  0.75185586  0.05329235    -0.46000
C359        C  0.43447074  0.71440687  0.05546588    -0.06900
C360        C  0.43700746  0.69268933  0.03067526    -0.22700
H361        H  0.97269179  0.68510588  0.97402223     0.19100
H362        H  0.52703365  0.81504596  0.52670780     0.17900
H363        H  0.08108408  0.83797938  0.47435548     0.14200
H364        H  0.41860975  0.66217205  0.02629477     0.14100
H365        H  0.03221517  0.72580531  0.43200713     0.32200
H366        H  0.46742765  0.77430665  0.06870885     0.35000
C367        C  0.46835537  0.74830008  0.23534156     0.20600
C368        C  0.98309259  0.77229485  0.26189283    -0.39300
C369        C  0.01517136  0.77298497  0.27635666     0.19600
C370        C  0.03130489  0.75138163  0.26526730     0.22200
C371        C  0.51656222  0.72737710  0.23871396    -0.39800
C372        C  0.48447878  0.72668957  0.22424597     0.21000
N373        N  0.43827055  0.74283299  0.21727415    -0.33100
C374        C  0.43522193  0.71755796  0.19451558    -0.10600
C375        C  0.46347173  0.70674738  0.19812550    -0.29400
N376        N  0.06140935  0.75688840  0.28333431    -0.46000
C377        C  0.06444526  0.78218101  0.30607799    -0.05300
C378        C  0.03617514  0.79295508  0.30246131    -0.22700
H379        H  0.97053139  0.78919892  0.27062816     0.19100
H380        H  0.52912916  0.71047982  0.22997443     0.17900
H381        H  0.46818757  0.68720747  0.18344616     0.14200
H382        H  0.03144655  0.81249750  0.31712610     0.14100
H383        H  0.42097533  0.75561080  0.22017129     0.32200
H384        H  0.07872621  0.74413329  0.28044490     0.35000
C385        C  0.24514585  0.51903450  0.22513125     0.20600
C386        C  0.21168593  0.99030961  0.23990257    -0.39300
C387        C  0.21786771  0.97151079  0.26539908     0.19600
C388        C  0.25458050  0.98069015  0.27539962     0.22200
C389        C  0.28804185  0.50941814  0.26062859    -0.39800
C390        C  0.28186018  0.52821433  0.23512782     0.21000
N391        N  0.24703709  0.54099408  0.20037935    -0.33100
C392        C  0.28521174  0.56433903  0.19456265    -0.10600
C393        C  0.30787840  0.55727002  0.21576844    -0.29400
N394        N  0.25268387  0.95873235  0.30015698    -0.46000
C395        C  0.21450668  0.93539108  0.30596873    -0.05300
C396        C  0.19184687  0.94245890  0.28475564    -0.22700
H397        H  0.18297493  0.98312797  0.23210866     0.19100
H398        H  0.31675276  0.51660324  0.26842504     0.17900
H399        H  0.33910824  0.57140125  0.21681037     0.14200
H400        H  0.16061740  0.92833896  0.28371548     0.14100
H401        H  0.22377415  0.54015070  0.18818832     0.32200
H402        H  0.27594253  0.95958155  0.31235941     0.35000
C403        C  0.22548358  0.98079674  0.47549593     0.20600
C404        C  0.22110688  0.50990845  0.49028280    -0.39300
C405        C  0.24649954  0.52877089  0.01537274     0.19600
C406        C  0.27406981  0.51928532  0.02498386     0.22200
C407        C  0.27844611  0.99017890  0.01019813    -0.39800
C408        C  0.25305865  0.97132050  0.48511171     0.21000
N409        N  0.20508438  0.95877584  0.45100836    -0.33100
C410        C  0.21977418  0.93512496  0.44500183    -0.10600
C411        C  0.24969707  0.94200364  0.46581190    -0.29400
N412        N  0.29445943  0.54127678  0.04948247    -0.46000
C413        C  0.27977633  0.56492493  0.05551317    -0.05300
C414        C  0.24986202  0.55807641  0.03469745    -0.22700
H415        H  0.19954534  0.51732085  0.48279813     0.19100
H416        H  0.30000061  0.98275919  0.01768820     0.17900
H417        H  0.26679374  0.92767220  0.46656453     0.14200
H418        H  0.23276535  0.57240848  0.03396417     0.14100
H419        H  0.18261484  0.95983262  0.43906904     0.32200
H420        H  0.31691225  0.54019035  0.06142356     0.35000
C421        C  0.24494205  0.72521689  0.02491859     0.20600
C422        C  0.21159164  0.71989581  0.00916829    -0.39300
C423        C  0.21774449  0.74586243  0.48452730     0.19600
C424        C  0.25433213  0.77482926  0.47620685     0.22200
C425        C  0.28767432  0.78015140  0.49195850    -0.39800
C426        C  0.28152446  0.75418394  0.01658828     0.21000
N427        N  0.24684889  0.70444923  0.04915923    -0.33100
C428        C  0.28491171  0.72023446  0.05626988    -0.10600
C429        C  0.30747694  0.75130312  0.03644148    -0.29400
N430        N  0.25245915  0.79554862  0.45191789    -0.46000
C431        C  0.21441536  0.77973686  0.44474519    -0.05300
C432        C  0.19181752  0.74869918  0.46460134    -0.22700
H433        H  0.18298231  0.69722727  0.01562954     0.19100
H434        H  0.31628685  0.80279641  0.48547804     0.17900
H435        H  0.33859901  0.76938712  0.03662800     0.14200
H436        H  0.16069971  0.73058460  0.46436440     0.14100
H437        H  0.22368596  0.68092197  0.06014536     0.32200
H438        H  0.27564110  0.81904341  0.44091816     0.35000
C439        C  0.22540742  0.74523952  0.27511479     0.20600
C440        C  0.22120688  0.71180806  0.26047609    -0.39300
C441        C  0.24662348  0.71788927  0.23539883     0.19600
C442        C  0.27405857  0.75448014  0.22566049     0.22200
C443        C  0.27825393  0.78791140  0.24029392    -0.39800
C444        C  0.25284177  0.78182950  0.26537351     0.21000
N445        N  0.20501169  0.74721213  0.29961125    -0.33100
C446        C  0.21957262  0.78531300  0.30552598    -0.10600
C447        C  0.24939000  0.80785266  0.28461160    -0.29400
N448        N  0.29448959  0.75250857  0.20119281    -0.46000
C449        C  0.27995797  0.71440780  0.19529419    -0.05300
C450        C  0.25011116  0.69186556  0.21618443    -0.22700
H451        H  0.19976191  0.68319498  0.26806887     0.19100
H452        H  0.29971012  0.81652442  0.23270988     0.17900
H453        H  0.26640574  0.83899934  0.28378527     0.14200
H454        H  0.23310878  0.66071847  0.21701696     0.14100
H455        H  0.18267603  0.72405807  0.31165760     0.32200
H456        H  0.31683889  0.77566578  0.18915901     0.35000
O457        O  0.16372640  0.88526991  0.83508239    -0.85100
O458        O  0.09526629  0.82077748  0.85084819    -0.82200
C459        C  0.09350729  0.79581192  0.83143789     0.98300
O460        O  0.11568869  0.78183199  0.83423880    -0.82200
O461        O  0.18004896  0.77678183  0.84983579    -0.84800
C462        C  0.20564287  0.80022425  0.83110912     1.02900
O463        O  0.21982706  0.83605298  0.83466288    -0.77600
O464        O  0.22327601  0.90440197  0.85026555    -0.77800
C465        C  0.19965131  0.90668742  0.83154894     1.02800
O466        O  0.18028654  0.90479707  0.90071157    -0.85100
O467        O  0.11598917  0.83654935  0.91663687    -0.82200
C468        C  0.09387287  0.80074702  0.91957480     0.98400
O469        O  0.09538202  0.77745315  0.90008627    -0.82200
O470        O  0.16371101  0.77991724  0.91554919    -0.84800
C471        C  0.19962607  0.79388083  0.91914511     1.02800
O472        O  0.22328339  0.81950604  0.90051189    -0.77600
O473        O  0.21981122  0.88442490  0.91606615    -0.77800
C474        C  0.20578446  0.90645244  0.91949891     1.02800
Cr475      Cr  0.14076497  0.85985889  0.87578744     1.93700
Cr476      Cr  0.14067608  0.78291567  0.87495499     1.93200
Cr477      Cr  0.21761853  0.85915875  0.87537262     1.39100
O478        O  0.16641528  0.83399939  0.87536974    -1.22900
O479        O  0.40437426  0.67906355  0.64970479    -0.85100
O480        O  0.33595745  0.61450203  0.66543704    -0.82200
C481        C  0.30003946  0.59307551  0.66900667     0.98300
O482        O  0.27638017  0.59539082  0.65035456    -0.82200
O483        O  0.27979596  0.66369518  0.66615797    -0.84800
C484        C  0.29393719  0.69951890  0.66972982     1.02900
O485        O  0.31952588  0.72299545  0.65101957    -0.77600
O486        O  0.38396634  0.71797737  0.66643575    -0.77800
C487        C  0.40615176  0.70398928  0.66916425     1.02800
O488        O  0.38360260  0.66349813  0.58392521    -0.85100
O489        O  0.31932260  0.59518196  0.59977914    -0.82200
C490        C  0.29376669  0.59353601  0.58106357     0.98400
O491        O  0.27969470  0.61550913  0.58461134    -0.82200
O492        O  0.27618063  0.68035021  0.60038332    -0.84800
C493        C  0.29977943  0.70602647  0.58175940     1.02800
O494        O  0.33570997  0.71999248  0.58527357    -0.77600
O495        O  0.40415586  0.72254935  0.60056636    -0.77800
C496        C  0.40571609  0.69931186  0.58105038     1.02800
Cr497      Cr  0.35885654  0.64004797  0.62475263     1.93700
Cr498      Cr  0.28195592  0.64067748  0.62537749     1.93200
Cr499      Cr  0.35887234  0.71695471  0.62579023     1.39100
O500        O  0.33316894  0.66587231  0.62530954    -1.22900
C501        C  0.01669724  0.74594012  0.97335917     0.20600
C502        C  0.98435493  0.71299121  0.48533648    -0.39300
C503        C  0.46815877  0.71852954  0.51291734     0.19600
C504        C  0.48302724  0.75420116  0.52737674     0.22200
C505        C  0.51538134  0.78715682  0.01540152    -0.39800
C506        C  0.03157353  0.78161878  0.98780921     0.21000
N507        N  0.03717916  0.74826900  0.94741947    -0.33100
C508        C  0.06517936  0.78571455  0.94520309    -0.10600
C509        C  0.06268890  0.80745480  0.97000403    -0.29400
N510        N  0.46249259  0.75185584  0.55329228    -0.46000
C511        C  0.43447059  0.71440682  0.55546579    -0.06900
C512        C  0.43700743  0.69268929  0.53067523    -0.22700
H513        H  0.97269172  0.68510592  0.47402207     0.19100
H514        H  0.52703386  0.81504600  0.02670781     0.17900
H515        H  0.08108413  0.83797938  0.97435539     0.14200
H516        H  0.41860979  0.66217200  0.52629475     0.14100
H517        H  0.03221519  0.72580521  0.93200723     0.32200
H518        H  0.46742746  0.77430652  0.56870875     0.35000
C519        C  0.46835529  0.74830002  0.73534165     0.20600
C520        C  0.98309255  0.77229481  0.76189283    -0.39300
C521        C  0.01517130  0.77298492  0.77635667     0.19600
C522        C  0.03130488  0.75138165  0.76526733     0.22200
C523        C  0.51656216  0.72737706  0.73871398    -0.39800
C524        C  0.48447864  0.72668946  0.72424608     0.21000
N525        N  0.43827049  0.74283301  0.71727418    -0.33100
C526        C  0.43522187  0.71755789  0.69451562    -0.10600
C527        C  0.46347160  0.70674725  0.69812562    -0.29400
N528        N  0.06140930  0.75688840  0.78333437    -0.46000
C529        C  0.06444515  0.78218097  0.80607806    -0.05300
C530        C  0.03617500  0.79295498  0.80246134    -0.22700
H531        H  0.97053130  0.78919889  0.77062812     0.19100
H532        H  0.52912904  0.71047976  0.72997437     0.17900
H533        H  0.46818750  0.68720738  0.68344629     0.14200
H534        H  0.03144632  0.81249736  0.81712611     0.14100
H535        H  0.42097553  0.75561081  0.72017124     0.32200
H536        H  0.07872617  0.74413332  0.78044499     0.35000
C537        C  0.24514583  0.51903449  0.72513121     0.20600
C538        C  0.21168591  0.99030960  0.73990252    -0.39300
C539        C  0.21786765  0.97151077  0.76539906     0.19600
C540        C  0.25458047  0.98069010  0.77539959     0.22200
C541        C  0.28804182  0.50941821  0.76062861    -0.39800
C542        C  0.28186014  0.52821433  0.73512780     0.21000
N543        N  0.24703711  0.54099418  0.70037940    -0.33100
C544        C  0.28521176  0.56433910  0.69456269    -0.10600
C545        C  0.30787840  0.55727004  0.71576847    -0.29400
N546        N  0.25268383  0.95873229  0.80015694    -0.46000
C547        C  0.21450665  0.93539106  0.80596874    -0.05300
C548        C  0.19184683  0.94245891  0.78475567    -0.22700
H549        H  0.18297494  0.98312798  0.73210854     0.19100
H550        H  0.31675275  0.51660345  0.76842512     0.17900
H551        H  0.33910823  0.57140122  0.71681047     0.14200
H552        H  0.16061735  0.92833899  0.78371556     0.14100
H553        H  0.22377415  0.54015085  0.68818836     0.32200
H554        H  0.27594254  0.95958148  0.81235933     0.35000
C555        C  0.22548362  0.98079675  0.97549589     0.20600
C556        C  0.22110690  0.50990844  0.99028273    -0.39300
C557        C  0.24649947  0.52877085  0.51537284     0.19600
C558        C  0.27406973  0.51928525  0.52498396     0.22200
C559        C  0.27844619  0.99017899  0.51019811    -0.39800
C560        C  0.25305866  0.97132048  0.98511167     0.21000
N561        N  0.20508436  0.95877582  0.95100833    -0.33100
C562        C  0.21977417  0.93512494  0.94500180    -0.10600
C563        C  0.24969707  0.94200361  0.96581184    -0.29400
N564        N  0.29445944  0.54127677  0.54948250    -0.46000
C565        C  0.27977636  0.56492494  0.55551321    -0.05300
C566        C  0.24986204  0.55807643  0.53469751    -0.22700
H567        H  0.19954529  0.51732076  0.98279807     0.19100
H568        H  0.30000075  0.98275933  0.51768808     0.17900
H569        H  0.26679369  0.92767214  0.96656443     0.14200
H570        H  0.23276549  0.57240862  0.53396419     0.14100
H571        H  0.18261491  0.95983258  0.93906909     0.32200
H572        H  0.31691237  0.54019044  0.56142348     0.35000
C573        C  0.24494205  0.72521686  0.52491852     0.20600
C574        C  0.21159163  0.71989583  0.50916828    -0.39300
C575        C  0.21774455  0.74586239  0.98452726     0.19600
C576        C  0.25433220  0.77482930  0.97620687     0.22200
C577        C  0.28767433  0.78015142  0.99195858    -0.39800
C578        C  0.28152445  0.75418392  0.51658822     0.21000
N579        N  0.24684885  0.70444918  0.54915916    -0.33100
C580        C  0.28491164  0.72023444  0.55626988    -0.10600
C581        C  0.30747688  0.75130311  0.53644150    -0.29400
N582        N  0.25245923  0.79554876  0.95191799    -0.46000
C583        C  0.21441547  0.77973697  0.94474522    -0.05300
C584        C  0.19181763  0.74869920  0.96460129    -0.22700
H585        H  0.18298230  0.69722727  0.51562953     0.19100
H586        H  0.31628689  0.80279649  0.98547819     0.17900
H587        H  0.33859896  0.76938711  0.53662811     0.14200
H588        H  0.16069983  0.73058461  0.96436427     0.14100
H589        H  0.22368589  0.68092192  0.56014525     0.32200
H590        H  0.27564133  0.81904378  0.94091826     0.35000
C591        C  0.22540744  0.74523954  0.77511474     0.20600
C592        C  0.22120683  0.71180806  0.76047601    -0.39300
C593        C  0.24662349  0.71788928  0.73539878     0.19600
C594        C  0.27405862  0.75448017  0.72566046     0.22200
C595        C  0.27825400  0.78791144  0.74029387    -0.39800
C596        C  0.25284182  0.78182952  0.76537347     0.21000
N597        N  0.20501170  0.74721214  0.79961121    -0.33100
C598        C  0.21957259  0.78531303  0.80552592    -0.10600
C599        C  0.24938999  0.80785266  0.78461156    -0.29400
N600        N  0.29448967  0.75250859  0.70119280    -0.46000
C601        C  0.27995807  0.71440782  0.69529421    -0.05300
C602        C  0.25011123  0.69186559  0.71618441    -0.22700
H603        H  0.19976180  0.68319501  0.76806876     0.19100
H604        H  0.29971020  0.81652444  0.73270982     0.17900
H605        H  0.26640577  0.83899934  0.78378526     0.14200
H606        H  0.23310882  0.66071850  0.71701690     0.14100
H607        H  0.18267619  0.72405816  0.81165753     0.32200
H608        H  0.31683891  0.77566580  0.68915901     0.35000
O609        O  0.66372646  0.38526989  0.33508239    -0.85100
O610        O  0.59526639  0.32077742  0.35084818    -0.82200
C611        C  0.59350735  0.29581184  0.33143787     0.98300
O612        O  0.61568872  0.28183190  0.33423878    -0.82200
O613        O  0.68004888  0.27678179  0.34983574    -0.84800
C614        C  0.70564290  0.30022422  0.33110913     1.02900
O615        O  0.71982718  0.33605295  0.33466290    -0.77600
O616        O  0.72327610  0.40440201  0.35026548    -0.77800
C617        C  0.69965136  0.40668745  0.33154893     1.02800
O618        O  0.68028660  0.40479714  0.40071158    -0.85100
O619        O  0.61598930  0.33654944  0.41663693    -0.82200
C620        C  0.59387298  0.30074712  0.41957485     0.98400
O621        O  0.59538215  0.27745325  0.40008633    -0.82200
O622        O  0.66371100  0.27991717  0.41554919    -0.84800
C623        C  0.69962605  0.29388085  0.41914514     1.02800
O624        O  0.72328337  0.31950612  0.40051196    -0.77600
O625        O  0.71981113  0.38442481  0.41606617    -0.77800
C626        C  0.70578443  0.40645240  0.41949895     1.02800
Cr627      Cr  0.64076505  0.35985891  0.37578745     1.93700
Cr628      Cr  0.64067612  0.28291568  0.37495499     1.93200
Cr629      Cr  0.71761859  0.35915879  0.37537261     1.39100
O630        O  0.66641536  0.33399942  0.37536973    -1.22900
O631        O  0.90437427  0.17906350  0.14970483    -0.85100
O632        O  0.83595749  0.11450199  0.16543706    -0.82200
C633        C  0.80003949  0.09307555  0.16900668     0.98300
O634        O  0.77638024  0.09539093  0.15035455    -0.82200
O635        O  0.77979601  0.16369521  0.16615798    -0.84800
C636        C  0.79393713  0.19951891  0.16972981     1.02900
O637        O  0.81952587  0.22299549  0.15101960    -0.77600
O638        O  0.88396644  0.21797743  0.16643574    -0.77800
C639        C  0.90615181  0.20398926  0.16916426     1.02800
O640        O  0.88360259  0.16349813  0.08392522    -0.85100
O641        O  0.81932245  0.09518193  0.09977918    -0.82200
C642        C  0.79376660  0.09353601  0.08106357     0.98400
O643        O  0.77969464  0.11550918  0.08461129    -0.82200
O644        O  0.77618074  0.18035035  0.10038334    -0.84800
C645        C  0.79977952  0.20602659  0.08175941     1.02800
O646        O  0.83571007  0.21999262  0.08527359    -0.77600
O647        O  0.90415591  0.22254939  0.10056636    -0.77800
C648        C  0.90571615  0.19931187  0.08105042     1.02800
Cr649      Cr  0.85885653  0.14004795  0.12475263     1.93700
Cr650      Cr  0.78195597  0.14067757  0.12537746     1.93200
Cr651      Cr  0.85887241  0.21695478  0.12579024     1.39100
O652        O  0.83316899  0.16587237  0.12530952    -1.22900
C653        C  0.51669724  0.24594013  0.47335912     0.20600
C654        C  0.48435501  0.21299124  0.98533653    -0.39300
C655        C  0.96815873  0.21852959  0.01291735     0.19600
C656        C  0.98302730  0.25420120  0.02737679     0.22200
C657        C  0.01538132  0.28715682  0.51540152    -0.39800
C658        C  0.53157358  0.28161878  0.48780923     0.21000
N659        N  0.53717910  0.24826908  0.44741936    -0.33100
C660        C  0.56517936  0.28571464  0.44520306    -0.10600
C661        C  0.56268896  0.30745485  0.47000409    -0.29400
N662        N  0.96249268  0.25185588  0.05329233    -0.46000
C663        C  0.93447067  0.21440687  0.05546585    -0.06900
C664        C  0.93700738  0.19268935  0.03067523    -0.22700
H665        H  0.47269183  0.18510593  0.97402215     0.19100
H666        H  0.02703383  0.31504597  0.52670782     0.17900
H667        H  0.58108425  0.33797937  0.47435559     0.14200
H668        H  0.91860967  0.16217208  0.02629475     0.14100
H669        H  0.53221514  0.22580534  0.43200705     0.32200
H670        H  0.96742759  0.27430666  0.06870882     0.35000
C671        C  0.96835535  0.24830014  0.23534155     0.20600
C672        C  0.48309260  0.27229491  0.26189281    -0.39300
C673        C  0.51517130  0.27298496  0.27635669     0.19600
C674        C  0.53130479  0.25138165  0.26526733     0.22200
C675        C  0.01656220  0.22737713  0.23871395    -0.39800
C676        C  0.98447875  0.22668960  0.22424599     0.21000
N677        N  0.93827051  0.24283300  0.21727413    -0.33100
C678        C  0.93522187  0.21755790  0.19451564    -0.10600
C679        C  0.96347164  0.20674732  0.19812559    -0.29400
N680        N  0.56140931  0.25688842  0.28333430    -0.46000
C681        C  0.56444521  0.28218099  0.30607802    -0.05300
C682        C  0.53617509  0.29295504  0.30246135    -0.22700
H683        H  0.47053138  0.28919898  0.27062811     0.19100
H684        H  0.02912912  0.21047984  0.22997438     0.17900
H685        H  0.96818748  0.18720740  0.18344625     0.14200
H686        H  0.53144647  0.31249742  0.31712620     0.14100
H687        H  0.92097530  0.25561084  0.22017119     0.32200
H688        H  0.57872603  0.24413344  0.28044484     0.35000
C689        C  0.74514580  0.01903444  0.22513121     0.20600
C690        C  0.71168590  0.49030962  0.23990256    -0.39300
C691        C  0.71786769  0.47151084  0.26539910     0.19600
C692        C  0.75458052  0.48069021  0.27539966     0.22200
C693        C  0.78804182  0.00941819  0.26062861    -0.39800
C694        C  0.78186014  0.02821434  0.23512782     0.21000
N695        N  0.74703705  0.04099409  0.20037937    -0.33100
C696        C  0.78521171  0.06433908  0.19456268    -0.10600
C697        C  0.80787837  0.05727009  0.21576848    -0.29400
N698        N  0.75268387  0.45873235  0.30015698    -0.46000
C699        C  0.71450669  0.43539106  0.30596871    -0.05300
C700        C  0.69184687  0.44245888  0.28475562    -0.22700
H701        H  0.68297493  0.48312794  0.23210859     0.19100
H702        H  0.81675273  0.01660334  0.26842509     0.17900
H703        H  0.83910820  0.07140135  0.21681041     0.14200
H704        H  0.66061740  0.42833891  0.28371542     0.14100
H705        H  0.72377408  0.04015072  0.18818836     0.32200
H706        H  0.77594257  0.45958153  0.31235943     0.35000
C707        C  0.72548370  0.48079671  0.47549595     0.20600
C708        C  0.72110693  0.00990848  0.49028280    -0.39300
C709        C  0.74649959  0.02877094  0.01537274     0.19600
C710        C  0.77406974  0.01928528  0.02498393     0.22200
C711        C  0.77844617  0.49017890  0.01019811    -0.39800
C712        C  0.75305874  0.47132046  0.48511171     0.21000
N713        N  0.70508440  0.45877579  0.45100839    -0.33100
C714        C  0.71977423  0.43512491  0.44500185    -0.10600
C715        C  0.74969717  0.44200362  0.46581185    -0.29400
N716        N  0.79445937  0.04127673  0.04948257    -0.46000
C717        C  0.77977630  0.06492497  0.05551317    -0.05300
C718        C  0.74986209  0.05807652  0.03469740    -0.22700
H719        H  0.69954537  0.01732085  0.48279812     0.19100
H720        H  0.80000067  0.48275917  0.01768815     0.17900
H721        H  0.76679385  0.42767219  0.46656443     0.14200
H722        H  0.73276548  0.07240865  0.03396408     0.14100
H723        H  0.68261501  0.45983254  0.43906927     0.32200
H724        H  0.81691199  0.04019033  0.06142360     0.35000
C725        C  0.74494201  0.22521697  0.02491861     0.20600
C726        C  0.71159160  0.21989589  0.00916831    -0.39300
C727        C  0.71774455  0.24586246  0.48452729     0.19600
C728        C  0.75433219  0.27482927  0.47620680     0.22200
C729        C  0.78767431  0.28015138  0.49195848    -0.39800
C730        C  0.78152443  0.25418399  0.01658826     0.21000
N731        N  0.74684885  0.20444931  0.04915925    -0.33100
C732        C  0.78491169  0.22023452  0.05626988    -0.10600
C733        C  0.80747692  0.25130314  0.03644144    -0.29400
N734        N  0.75245923  0.29554862  0.45191786    -0.46000
C735        C  0.71441548  0.27973696  0.44474519    -0.05300
C736        C  0.69181764  0.24869929  0.46460135    -0.22700
H737        H  0.68298228  0.19722737  0.01562959     0.19100
H738        H  0.81628687  0.30279637  0.48547800     0.17900
H739        H  0.83859899  0.26938707  0.03662793     0.14200
H740        H  0.66069983  0.23058476  0.46436443     0.14100
H741        H  0.72368589  0.18092206  0.06014539     0.32200
H742        H  0.77564139  0.31904358  0.44091803     0.35000
C743        C  0.72540741  0.24523946  0.27511485     0.20600
C744        C  0.72120690  0.21180804  0.26047610    -0.39300
C745        C  0.74662349  0.21788929  0.23539885     0.19600
C746        C  0.77405854  0.25448016  0.22566050     0.22200
C747        C  0.77825393  0.28791144  0.24029392    -0.39800
C748        C  0.75284180  0.28182950  0.26537355     0.21000
N749        N  0.70501168  0.24721210  0.29961122    -0.33100
C750        C  0.71957254  0.28531292  0.30552598    -0.10600
C751        C  0.74938997  0.30785264  0.28461161    -0.29400
N752        N  0.79448955  0.25250860  0.20119277    -0.46000
C753        C  0.77995788  0.21440778  0.19529417    -0.05300
C754        C  0.75011113  0.19186557  0.21618443    -0.22700
H755        H  0.69976187  0.18319493  0.26806881     0.19100
H756        H  0.79971006  0.31652447  0.23270988     0.17900
H757        H  0.76640567  0.33899932  0.28378530     0.14200
H758        H  0.73310875  0.16071847  0.21701697     0.14100
H759        H  0.68267573  0.22405772  0.31165771     0.32200
H760        H  0.81683865  0.27566560  0.18915905     0.35000
O761        O  0.66372643  0.38526978  0.83508233    -0.85100
O762        O  0.59526636  0.32077740  0.85084822    -0.82200
C763        C  0.59350734  0.29581182  0.83143790     0.98300
O764        O  0.61568866  0.28183183  0.83423882    -0.82200
O765        O  0.68004891  0.27678178  0.84983578    -0.84800
C766        C  0.70564286  0.30022419  0.83110912     1.02900
O767        O  0.71982712  0.33605295  0.83466289    -0.77600
O768        O  0.72327602  0.40440204  0.85026559    -0.77800
C769        C  0.69965132  0.40668740  0.83154893     1.02800
O770        O  0.68028664  0.40479712  0.90071153    -0.85100
O771        O  0.61598921  0.33654943  0.91663687    -0.82200
C772        C  0.59387292  0.30074708  0.91957480     0.98400
O773        O  0.59538207  0.27745322  0.90008627    -0.82200
O774        O  0.66371096  0.27991718  0.91554918    -0.84800
C775        C  0.69962601  0.29388082  0.91914511     1.02800
O776        O  0.72328332  0.31950607  0.90051192    -0.77600
O777        O  0.71981110  0.38442475  0.91606620    -0.77800
C778        C  0.70578446  0.40645238  0.91949892     1.02800
Cr779      Cr  0.64076502  0.35985889  0.87578742     1.93700
Cr780      Cr  0.64067607  0.28291564  0.87495499     1.93200
Cr781      Cr  0.71761852  0.35915875  0.87537263     1.39100
O782        O  0.66641529  0.33399937  0.87536973    -1.22900
O783        O  0.90437427  0.17906364  0.64970479    -0.85100
O784        O  0.83595748  0.11450213  0.66543708    -0.82200
C785        C  0.80003949  0.09307559  0.66900669     0.98300
O786        O  0.77638021  0.09539087  0.65035453    -0.82200
O787        O  0.77979609  0.16369524  0.66615800    -0.84800
C788        C  0.79393719  0.19951894  0.66972980     1.02900
O789        O  0.81952584  0.22299552  0.65101954    -0.77600
O790        O  0.88396633  0.21797745  0.66643577    -0.77800
C791        C  0.90615177  0.20398934  0.66916426     1.02800
O792        O  0.88360262  0.16349812  0.58392519    -0.85100
O793        O  0.81932258  0.09518200  0.59977916    -0.82200
C794        C  0.79376664  0.09353601  0.58106361     0.98400
O795        O  0.77969466  0.11550915  0.58461135    -0.82200
O796        O  0.77618073  0.18035031  0.60038330    -0.84800
C797        C  0.79977952  0.20602655  0.58175937     1.02800
O798        O  0.83571006  0.21999261  0.58527354    -0.77600
O799        O  0.90415593  0.22254934  0.60056639    -0.77800
C800        C  0.90571618  0.19931185  0.58105041     1.02800
Cr801      Cr  0.85885657  0.14004802  0.62475263     1.93700
Cr802      Cr  0.78195598  0.14067755  0.62537748     1.93200
Cr803      Cr  0.85887238  0.21695478  0.62579022     1.39100
O804        O  0.83316899  0.16587237  0.62530952    -1.22900
C805        C  0.51669727  0.24594013  0.97335915     0.20600
C806        C  0.48435500  0.21299124  0.48533653    -0.39300
C807        C  0.96815877  0.21852958  0.51291731     0.19600
C808        C  0.98302733  0.25420117  0.52737675     0.22200
C809        C  0.01538131  0.28715683  0.01540153    -0.39800
C810        C  0.53157360  0.28161878  0.98780922     0.21000
N811        N  0.53717916  0.24826902  0.94741939    -0.33100
C812        C  0.56517940  0.28571461  0.94520308    -0.10600
C813        C  0.56268899  0.30745483  0.97000407    -0.29400
N814        N  0.96249272  0.25185587  0.55329231    -0.46000
C815        C  0.93447069  0.21440684  0.55546582    -0.06900
C816        C  0.93700742  0.19268933  0.53067520    -0.22700
H817        H  0.47269183  0.18510593  0.47402213     0.19100
H818        H  0.02703385  0.31504599  0.02670782     0.17900
H819        H  0.58108428  0.33797937  0.97435552     0.14200
H820        H  0.91860971  0.16217206  0.52629470     0.14100
H821        H  0.53221525  0.22580542  0.93200720     0.32200
H822        H  0.96742764  0.27430652  0.56870873     0.35000
C823        C  0.96835535  0.24830010  0.73534161     0.20600
C824        C  0.48309263  0.27229492  0.76189283    -0.39300
C825        C  0.51517139  0.27298503  0.77635666     0.19600
C826        C  0.53130489  0.25138172  0.76526730     0.22200
C827        C  0.01656225  0.22737716  0.73871397    -0.39800
C828        C  0.98447872  0.22668954  0.72424607     0.21000
N829        N  0.93827056  0.24283305  0.71727417    -0.33100
C830        C  0.93522187  0.21755794  0.69451565    -0.10600
C831        C  0.96347160  0.20674728  0.69812566    -0.29400
N832        N  0.56140935  0.25688841  0.78333432    -0.46000
C833        C  0.56444524  0.28218101  0.80607803    -0.05300
C834        C  0.53617515  0.29295510  0.80246133    -0.22700
H835        H  0.47053145  0.28919903  0.77062811     0.19100
H836        H  0.02912919  0.21047989  0.72997441     0.17900
H837        H  0.96818745  0.18720735  0.68344637     0.14200
H838        H  0.53144653  0.31249749  0.81712615     0.14100
H839        H  0.92097547  0.25561099  0.72017126     0.32200
H840        H  0.57872601  0.24413337  0.78044494     0.35000
C841        C  0.74514583  0.01903448  0.72513122     0.20600
C842        C  0.71168588  0.49030964  0.73990255    -0.39300
C843        C  0.71786765  0.47151081  0.76539908     0.19600
C844        C  0.75458047  0.48069017  0.77539961     0.22200
C845        C  0.78804184  0.00941818  0.76062858    -0.39800
C846        C  0.78186016  0.02821437  0.73512782     0.21000
N847        N  0.74703710  0.04099412  0.70037935    -0.33100
C848        C  0.78521176  0.06433914  0.69456270    -0.10600
C849        C  0.80787841  0.05727013  0.71576851    -0.29400
N850        N  0.75268384  0.45873234  0.80015695    -0.46000
C851        C  0.71450666  0.43539104  0.80596870    -0.05300
C852        C  0.69184683  0.44245892  0.78475566    -0.22700
H853        H  0.68297490  0.48312803  0.73210861     0.19100
H854        H  0.81675277  0.01660334  0.76842503     0.17900
H855        H  0.83910824  0.07140133  0.71681049     0.14200
H856        H  0.66061736  0.42833904  0.78371557     0.14100
H857        H  0.72377416  0.04015068  0.68818828     0.32200
H858        H  0.77594252  0.45958155  0.81235938     0.35000
C859        C  0.72548364  0.48079667  0.97549590     0.20600
C860        C  0.72110699  0.00990848  0.99028273    -0.39300
C861        C  0.74649953  0.02877092  0.51537282     0.19600
C862        C  0.77406976  0.01928531  0.52498393     0.22200
C863        C  0.77844624  0.49017891  0.51019815    -0.39800
C864        C  0.75305870  0.47132046  0.98511168     0.21000
N865        N  0.70508440  0.45877576  0.95100832    -0.33100
C866        C  0.71977426  0.43512491  0.94500179    -0.10600
C867        C  0.74969717  0.44200364  0.96581182    -0.29400
N868        N  0.79445941  0.04127675  0.54948257    -0.46000
C869        C  0.77977629  0.06492494  0.55551323    -0.05300
C870        C  0.74986207  0.05807652  0.53469748    -0.22700
H871        H  0.69954540  0.01732080  0.98279805     0.19100
H872        H  0.80000076  0.48275922  0.51768814     0.17900
H873        H  0.76679386  0.42767221  0.96656443     0.14200
H874        H  0.73276555  0.07240874  0.53396417     0.14100
H875        H  0.68261494  0.45983246  0.93906912     0.32200
H876        H  0.81691209  0.04019038  0.56142353     0.35000
C877        C  0.74494207  0.22521694  0.52491855     0.20600
C878        C  0.71159164  0.21989587  0.50916829    -0.39300
C879        C  0.71774451  0.24586241  0.98452723     0.19600
C880        C  0.75433218  0.27482923  0.97620674     0.22200
C881        C  0.78767429  0.28015137  0.99195847    -0.39800
C882        C  0.78152447  0.25418398  0.51658822     0.21000
N883        N  0.74684891  0.20444929  0.54915918    -0.33100
C884        C  0.78491172  0.22023451  0.55626984    -0.10600
C885        C  0.80747696  0.25130317  0.53644143    -0.29400
N886        N  0.75245919  0.29554857  0.95191780    -0.46000
C887        C  0.71441544  0.27973691  0.94474515    -0.05300
C888        C  0.69181759  0.24869923  0.96460131    -0.22700
H889        H  0.68298232  0.19722734  0.51562956     0.19100
H890        H  0.81628685  0.30279635  0.98547798     0.17900
H891        H  0.83859902  0.26938716  0.53662794     0.14200
H892        H  0.66069977  0.23058471  0.96436441     0.14100
H893        H  0.72368596  0.18092203  0.56014531     0.32200
H894        H  0.77564135  0.31904355  0.94091794     0.35000
C895        C  0.72540735  0.24523945  0.77511474     0.20600
C896        C  0.72120688  0.21180800  0.76047605    -0.39300
C897        C  0.74662352  0.21788926  0.73539881     0.19600
C898        C  0.77405856  0.25448013  0.72566047     0.22200
C899        C  0.77825389  0.28791140  0.74029386    -0.39800
C900        C  0.75284171  0.28182946  0.76537346     0.21000
N901        N  0.70501163  0.24721204  0.79961120    -0.33100
C902        C  0.71957253  0.28531292  0.80552595    -0.10600
C903        C  0.74938992  0.30785261  0.78461156    -0.29400
N904        N  0.79448961  0.25250860  0.70119276    -0.46000
C905        C  0.77995798  0.21440778  0.69529419    -0.05300
C906        C  0.75011120  0.19186555  0.71618442    -0.22700
H907        H  0.69976192  0.18319490  0.76806880     0.19100
H908        H  0.79971005  0.31652443  0.73270985     0.17900
H909        H  0.76640565  0.33899928  0.78378525     0.14200
H910        H  0.73310877  0.16071846  0.71701694     0.14100
H911        H  0.68267593  0.22405785  0.81165759     0.32200
H912        H  0.81683868  0.27566562  0.68915903     0.35000
O913        O  0.66372648  0.88526996  0.33508243    -0.85100
O914        O  0.59526640  0.82077753  0.35084814    -0.82200
C915        C  0.59350737  0.79581194  0.33143784     0.98300
O916        O  0.61568876  0.78183201  0.33423876    -0.82200
O917        O  0.68004887  0.77678177  0.34983571    -0.84800
C918        C  0.70564290  0.80022421  0.33110911     1.02900
O919        O  0.71982714  0.83605295  0.33466290    -0.77600
O920        O  0.72327611  0.90440194  0.35026547    -0.77800
C921        C  0.69965138  0.90668744  0.33154894     1.02800
O922        O  0.68028660  0.90479711  0.40071160    -0.85100
O923        O  0.61598925  0.83654937  0.41663692    -0.82200
C924        C  0.59387292  0.80074704  0.41957484     0.98400
O925        O  0.59538208  0.77745317  0.40008632    -0.82200
O926        O  0.66371096  0.77991720  0.41554922    -0.84800
C927        C  0.69962602  0.79388082  0.41914514     1.02800
O928        O  0.72328334  0.81950605  0.40051194    -0.77600
O929        O  0.71981112  0.88442478  0.41606618    -0.77800
C930        C  0.70578448  0.90645241  0.41949894     1.02800
Cr931      Cr  0.64076504  0.85985891  0.37578746     1.93700
Cr932      Cr  0.64067609  0.78291567  0.37495498     1.93200
Cr933      Cr  0.71761855  0.85915873  0.37537262     1.39100
O934        O  0.66641532  0.83399939  0.37536972    -1.22900
O935        O  0.90437430  0.67906357  0.14970481    -0.85100
O936        O  0.83595748  0.61450204  0.16543708    -0.82200
C937        C  0.80003948  0.59307552  0.16900668     0.98300
O938        O  0.77638023  0.59539086  0.15035453    -0.82200
O939        O  0.77979602  0.66369519  0.16615798    -0.84800
C940        C  0.79393712  0.69951888  0.16972980     1.02900
O941        O  0.81952584  0.72299547  0.15101958    -0.77600
O942        O  0.88396636  0.71797738  0.16643577    -0.77800
C943        C  0.90615179  0.70398929  0.16916426     1.02800
O944        O  0.88360259  0.66349816  0.08392521    -0.85100
O945        O  0.81932257  0.59518198  0.09977912    -0.82200
C946        C  0.79376662  0.59353597  0.08106357     0.98400
O947        O  0.77969462  0.61550907  0.08461133    -0.82200
O948        O  0.77618072  0.68035026  0.10038332    -0.84800
C949        C  0.79977951  0.70602653  0.08175942     1.02800
O950        O  0.83571005  0.71999255  0.08527359    -0.77600
O951        O  0.90415591  0.72254941  0.10056636    -0.77800
C952        C  0.90571613  0.69931189  0.08105040     1.02800
Cr953      Cr  0.85885657  0.64004798  0.12475263     1.93700
Cr954      Cr  0.78195598  0.64067751  0.12537747     1.93200
Cr955      Cr  0.85887238  0.71695474  0.12579025     1.39100
O956        O  0.83316900  0.66587234  0.12530951    -1.22900
C957        C  0.51669721  0.74594013  0.47335914     0.20600
C958        C  0.48435500  0.71299121  0.98533658    -0.39300
C959        C  0.96815884  0.71852956  0.01291741     0.19600
C960        C  0.98302732  0.75420118  0.02737681     0.22200
C961        C  0.01538127  0.78715680  0.51540148    -0.39800
C962        C  0.53157350  0.78161877  0.48780921     0.21000
N963        N  0.53717909  0.74826905  0.44741940    -0.33100
C964        C  0.56517933  0.78571460  0.44520306    -0.10600
C965        C  0.56268889  0.80745481  0.47000406    -0.29400
N966        N  0.96249265  0.75185586  0.05329231    -0.46000
C967        C  0.93447068  0.71440685  0.05546585    -0.06900
C968        C  0.93700751  0.69268930  0.03067530    -0.22700
H969        H  0.47269182  0.68510589  0.97402223     0.19100
H970        H  0.02703373  0.81504597  0.52670776     0.17900
H971        H  0.58108414  0.83797936  0.47435552     0.14200
H972        H  0.91860986  0.66217201  0.02629481     0.14100
H973        H  0.53221512  0.72580533  0.43200717     0.32200
H974        H  0.96742749  0.77430664  0.06870881     0.35000
C975        C  0.96835533  0.74830009  0.23534159     0.20600
C976        C  0.48309256  0.77229481  0.26189281    -0.39300
C977        C  0.51517130  0.77298494  0.27635666     0.19600
C978        C  0.53130483  0.75138165  0.26526732     0.22200
C979        C  0.01656218  0.72737707  0.23871394    -0.39800
C980        C  0.98447873  0.72668956  0.22424599     0.21000
N981        N  0.93827050  0.74283299  0.21727417    -0.33100
C982        C  0.93522190  0.71755796  0.19451561    -0.10600
C983        C  0.96347167  0.70674737  0.19812553    -0.29400
N984        N  0.56140931  0.75688840  0.28333433    -0.46000
C985        C  0.56444518  0.78218101  0.30607802    -0.05300
C986        C  0.53617506  0.79295507  0.30246131    -0.22700
H987        H  0.47053129  0.78919885  0.27062810     0.19100
H988        H  0.02912907  0.71047974  0.22997438     0.17900
H989        H  0.96818751  0.68720748  0.18344617     0.14200
H990        H  0.53144645  0.81249750  0.31712608     0.14100
H991        H  0.92097529  0.75561080  0.22017129     0.32200
H992        H  0.57872605  0.74413341  0.28044493     0.35000
C993        C  0.74514580  0.51903448  0.22513123     0.20600
C994        C  0.71168590  0.99030958  0.23990255    -0.39300
C995        C  0.71786769  0.97151079  0.26539909     0.19600
C996        C  0.75458052  0.98069018  0.27539964     0.22200
C997        C  0.78804182  0.50941817  0.26062860    -0.39800
C998        C  0.78186014  0.52821434  0.23512782     0.21000
N999        N  0.74703705  0.54099408  0.20037935    -0.33100
C1000       C  0.78521170  0.56433904  0.19456266    -0.10600
C1001       C  0.80787836  0.55727004  0.21576845    -0.29400
N1002       N  0.75268388  0.95873235  0.30015697    -0.46000
C1003       C  0.71450671  0.93539108  0.30596873    -0.05300
C1004       C  0.69184688  0.94245887  0.28475564    -0.22700
H1005       H  0.68297492  0.98312794  0.23210860     0.19100
H1006       H  0.81675273  0.51660328  0.26842505     0.17900
H1007       H  0.83910818  0.57140128  0.21681038     0.14200
H1008       H  0.66061740  0.92833888  0.28371546     0.14100
H1009       H  0.72377409  0.54015070  0.18818833     0.32200
H1010       H  0.77594261  0.95958152  0.31235939     0.35000
C1011       C  0.72548368  0.98079676  0.47549594     0.20600
C1012       C  0.72110698  0.50990845  0.49028278    -0.39300
C1013       C  0.74649956  0.52877090  0.01537274     0.19600
C1014       C  0.77406982  0.51928532  0.02498388     0.22200
C1015       C  0.77844616  0.99017889  0.01019817    -0.39800
C1016       C  0.75305873  0.97132053  0.48511170     0.21000
N1017       N  0.70508443  0.95877584  0.45100835    -0.33100
C1018       C  0.71977425  0.93512494  0.44500185    -0.10600
C1019       C  0.74969715  0.94200365  0.46581189    -0.29400
N1020       N  0.79445944  0.54127679  0.04948246    -0.46000
C1021       C  0.77977634  0.56492492  0.05551318    -0.05300
C1022       C  0.74986205  0.55807643  0.03469744    -0.22700
H1023       H  0.69954542  0.51732083  0.48279813     0.19100
H1024       H  0.80000061  0.98275915  0.01768828     0.17900
H1025       H  0.76679381  0.92767221  0.46656450     0.14200
H1026       H  0.73276540  0.57240852  0.03396415     0.14100
H1027       H  0.68261508  0.95983261  0.43906915     0.32200
H1028       H  0.81691233  0.54019038  0.06142356     0.35000
C1029       C  0.74494201  0.72521689  0.02491860     0.20600
C1030       C  0.71159160  0.71989581  0.00916829    -0.39300
C1031       C  0.71774451  0.74586243  0.48452730     0.19600
C1032       C  0.75433215  0.77482924  0.47620685     0.22200
C1033       C  0.78767431  0.78015137  0.49195851    -0.39800
C1034       C  0.78152440  0.75418396  0.01658830     0.21000
N1035       N  0.74684886  0.70444920  0.04915921    -0.33100
C1036       C  0.78491169  0.72023447  0.05626989    -0.10600
C1037       C  0.80747689  0.75130315  0.03644149    -0.29400
N1038       N  0.75245920  0.79554861  0.45191787    -0.46000
C1039       C  0.71441541  0.77973687  0.44474518    -0.05300
C1040       C  0.69181760  0.74869922  0.46460134    -0.22700
H1041       H  0.68298226  0.69722726  0.01562953     0.19100
H1042       H  0.81628686  0.80279635  0.48547804     0.17900
H1043       H  0.83859895  0.76938718  0.03662798     0.14200
H1044       H  0.66069979  0.73058466  0.46436442     0.14100
H1045       H  0.72368594  0.68092191  0.06014530     0.32200
H1046       H  0.77564115  0.81904338  0.44091812     0.35000
C1047       C  0.72540752  0.74523954  0.27511481     0.20600
C1048       C  0.72120691  0.71180808  0.26047608    -0.39300
C1049       C  0.74662348  0.71788928  0.23539881     0.19600
C1050       C  0.77405861  0.75448014  0.22566049     0.22200
C1051       C  0.77825403  0.78791140  0.24029394    -0.39800
C1052       C  0.75284188  0.78182951  0.26537354     0.21000
N1053       N  0.70501177  0.74721214  0.29961126    -0.33100
C1054       C  0.71957266  0.78531301  0.30552598    -0.10600
C1055       C  0.74939009  0.80785266  0.28461162    -0.29400
N1056       N  0.79448962  0.75250855  0.20119283    -0.46000
C1057       C  0.77995792  0.71440778  0.19529416    -0.05300
C1058       C  0.75011110  0.69186555  0.21618439    -0.22700
H1059       H  0.69976188  0.68319501  0.26806883     0.19100
H1060       H  0.79971025  0.81652442  0.23270992     0.17900
H1061       H  0.76640584  0.83899934  0.28378532     0.14200
H1062       H  0.73310866  0.66071846  0.21701691     0.14100
H1063       H  0.68267613  0.72405808  0.31165763     0.32200
H1064       H  0.81683901  0.77566578  0.18915907     0.35000
O1065       O  0.66372647  0.88526989  0.83508238    -0.85100
O1066       O  0.59526640  0.82077747  0.85084817    -0.82200
C1067       C  0.59350740  0.79581191  0.83143787     0.98300
O1068       O  0.61568879  0.78183199  0.83423878    -0.82200
O1069       O  0.68004894  0.77678184  0.84983578    -0.84800
C1070       C  0.70564287  0.80022425  0.83110912     1.02900
O1071       O  0.71982712  0.83605299  0.83466291    -0.77600
O1072       O  0.72327608  0.90440199  0.85026554    -0.77800
C1073       C  0.69965137  0.90668743  0.83154894     1.02800
O1074       O  0.68028658  0.90479711  0.90071156    -0.85100
O1075       O  0.61598916  0.83654935  0.91663686    -0.82200
C1076       C  0.59387286  0.80074701  0.91957480     0.98400
O1077       O  0.59538201  0.77745315  0.90008625    -0.82200
O1078       O  0.66371095  0.77991723  0.91554922    -0.84800
C1079       C  0.69962601  0.79388085  0.91914513     1.02800
O1080       O  0.72328331  0.81950604  0.90051191    -0.77600
O1081       O  0.71981116  0.88442484  0.91606617    -0.77800
C1082       C  0.70578447  0.90645243  0.91949891     1.02800
Cr1083     Cr  0.64076501  0.85985890  0.87578743     1.93700
Cr1084     Cr  0.64067608  0.78291567  0.87495499     1.93200
Cr1085     Cr  0.71761853  0.85915875  0.87537263     1.39100
O1086       O  0.66641529  0.83399939  0.87536974    -1.22900
O1087       O  0.90437428  0.67906353  0.64970480    -0.85100
O1088       O  0.83595744  0.61450205  0.66543706    -0.82200
C1089       C  0.80003944  0.59307552  0.66900668     0.98300
O1090       O  0.77638015  0.59539080  0.65035453    -0.82200
O1091       O  0.77979603  0.66369520  0.66615800    -0.84800
C1092       C  0.79393717  0.69951891  0.66972980     1.02900
O1093       O  0.81952586  0.72299546  0.65101954    -0.77600
O1094       O  0.88396640  0.71797740  0.66643575    -0.77800
C1095       C  0.90615180  0.70398926  0.66916426     1.02800
O1096       O  0.88360258  0.66349813  0.58392519    -0.85100
O1097       O  0.81932252  0.59518194  0.59977915    -0.82200
C1098       C  0.79376657  0.59353594  0.58106361     0.98400
O1099       O  0.77969459  0.61550908  0.58461136    -0.82200
O1100       O  0.77618073  0.68035024  0.60038332    -0.84800
C1101       C  0.79977951  0.70602646  0.58175938     1.02800
O1102       O  0.83571006  0.71999248  0.58527354    -0.77600
O1103       O  0.90415599  0.72254936  0.60056641    -0.77800
C1104       C  0.90571617  0.69931186  0.58105040     1.02800
Cr1105     Cr  0.85885654  0.64004794  0.62475262     1.93700
Cr1106     Cr  0.78195594  0.64067748  0.62537750     1.93200
Cr1107     Cr  0.85887240  0.71695471  0.62579023     1.39100
O1108       O  0.83316897  0.66587230  0.62530954    -1.22900
C1109       C  0.51669726  0.74594011  0.97335918     0.20600
C1110       C  0.48435497  0.71299121  0.48533652    -0.39300
C1111       C  0.96815874  0.71852955  0.51291730     0.19600
C1112       C  0.98302730  0.75420115  0.52737676     0.22200
C1113       C  0.01538127  0.78715683  0.01540150    -0.39800
C1114       C  0.53157357  0.78161877  0.98780922     0.21000
N1115       N  0.53717912  0.74826900  0.94741944    -0.33100
C1116       C  0.56517934  0.78571455  0.94520307    -0.10600
C1117       C  0.56268894  0.80745479  0.97000405    -0.29400
N1118       N  0.96249268  0.75185583  0.55329229    -0.46000
C1119       C  0.93447067  0.71440683  0.55546582    -0.06900
C1120       C  0.93700739  0.69268930  0.53067520    -0.22700
H1121       H  0.47269183  0.68510590  0.47402215     0.19100
H1122       H  0.02703376  0.81504600  0.02670778     0.17900
H1123       H  0.58108424  0.83797935  0.97435547     0.14200
H1124       H  0.91860968  0.66217203  0.52629470     0.14100
H1125       H  0.53221512  0.72580523  0.93200718     0.32200
H1126       H  0.96742758  0.77430662  0.56870880     0.35000
C1127       C  0.96835530  0.74830002  0.73534163     0.20600
C1128       C  0.48309257  0.77229485  0.76189285    -0.39300
C1129       C  0.51517134  0.77298495  0.77635668     0.19600
C1130       C  0.53130484  0.75138164  0.76526733     0.22200
C1131       C  0.01656223  0.72737709  0.73871398    -0.39800
C1132       C  0.98447871  0.72668949  0.72424607     0.21000
N1133       N  0.93827051  0.74283296  0.71727418    -0.33100
C1134       C  0.93522189  0.71755789  0.69451564    -0.10600
C1135       C  0.96347165  0.70674728  0.69812563    -0.29400
N1136       N  0.56140931  0.75688834  0.78333435    -0.46000
C1137       C  0.56444522  0.78218097  0.80607805    -0.05300
C1138       C  0.53617510  0.79295502  0.80246134    -0.22700
H1139       H  0.47053139  0.78919897  0.77062813     0.19100
H1140       H  0.02912916  0.71047980  0.72997440     0.17900
H1141       H  0.96818756  0.68720741  0.68344630     0.14200
H1142       H  0.53144648  0.81249742  0.81712614     0.14100
H1143       H  0.92097539  0.75561087  0.72017126     0.32200
H1144       H  0.57872598  0.74413332  0.78044496     0.35000
C1145       C  0.74514580  0.51903449  0.72513122     0.20600
C1146       C  0.71168590  0.99030957  0.73990251    -0.39300
C1147       C  0.71786769  0.97151079  0.76539907     0.19600
C1148       C  0.75458052  0.98069019  0.77539963     0.22200
C1149       C  0.78804179  0.50941819  0.76062859    -0.39800
C1150       C  0.78186011  0.52821434  0.73512781     0.21000
N1151       N  0.74703706  0.54099415  0.70037938    -0.33100
C1152       C  0.78521173  0.56433911  0.69456270    -0.10600
C1153       C  0.80787837  0.55727007  0.71576849    -0.29400
N1154       N  0.75268390  0.95873238  0.80015697    -0.46000
C1155       C  0.71450672  0.93539107  0.80596873    -0.05300
C1156       C  0.69184688  0.94245889  0.78475565    -0.22700
H1157       H  0.68297492  0.98312789  0.73210851     0.19100
H1158       H  0.81675272  0.51660341  0.76842507     0.17900
H1159       H  0.83910819  0.57140125  0.71681049     0.14200
H1160       H  0.66061741  0.92833894  0.78371551     0.14100
H1161       H  0.72377413  0.54015078  0.68818833     0.32200
H1162       H  0.77594262  0.95958159  0.81235933     0.35000
C1163       C  0.72548372  0.98079675  0.97549588     0.20600
C1164       C  0.72110691  0.50990841  0.99028274    -0.39300
C1165       C  0.74649957  0.52877087  0.51537281     0.19600
C1166       C  0.77406979  0.51928526  0.52498393     0.22200
C1167       C  0.77844626  0.99017903  0.51019810    -0.39800
C1168       C  0.75305874  0.97132049  0.98511167     0.21000
N1169       N  0.70508446  0.95877584  0.95100832    -0.33100
C1170       C  0.71977425  0.93512495  0.94500179    -0.10600
C1171       C  0.74969715  0.94200363  0.96581184    -0.29400
N1172       N  0.79445947  0.54127676  0.54948256    -0.46000
C1173       C  0.77977626  0.56492490  0.55551322    -0.05300
C1174       C  0.74986204  0.55807643  0.53469747    -0.22700
H1175       H  0.69954530  0.51732074  0.98279809     0.19100
H1176       H  0.80000081  0.98275938  0.51768810     0.17900
H1177       H  0.76679376  0.92767213  0.96656447     0.14200
H1178       H  0.73276545  0.57240857  0.53396413     0.14100
H1179       H  0.68261498  0.95983257  0.93906908     0.32200
H1180       H  0.81691207  0.54019043  0.56142346     0.35000
C1181       C  0.74494203  0.72521686  0.52491855     0.20600
C1182       C  0.71159161  0.71989579  0.50916827    -0.39300
C1183       C  0.71774451  0.74586239  0.98452725     0.19600
C1184       C  0.75433217  0.77482929  0.97620685     0.22200
C1185       C  0.78767429  0.78015143  0.99195858    -0.39800
C1186       C  0.78152444  0.75418393  0.51658825     0.21000
N1187       N  0.74684886  0.70444920  0.54915919    -0.33100
C1188       C  0.78491167  0.72023444  0.55626988    -0.10600
C1189       C  0.80747690  0.75130313  0.53644150    -0.29400
N1190       N  0.75245918  0.79554873  0.95191796    -0.46000
C1191       C  0.71441544  0.77973699  0.94474522    -0.05300
C1192       C  0.69181760  0.74869922  0.96460129    -0.22700
H1193       H  0.68298229  0.69722723  0.51562951     0.19100
H1194       H  0.81628683  0.80279649  0.98547818     0.17900
H1195       H  0.83859896  0.76938713  0.53662808     0.14200
H1196       H  0.66069980  0.73058466  0.96436430     0.14100
H1197       H  0.72368590  0.68092192  0.56014529     0.32200
H1198       H  0.77564130  0.81904374  0.94091819     0.35000
C1199       C  0.72540738  0.74523953  0.77511472     0.20600
C1200       C  0.72120687  0.71180805  0.76047607    -0.39300
C1201       C  0.74662350  0.71788929  0.73539882     0.19600
C1202       C  0.77405857  0.75448017  0.72566045     0.22200
C1203       C  0.77825393  0.78791145  0.74029386    -0.39800
C1204       C  0.75284173  0.78182952  0.76537344     0.21000
N1205       N  0.70501164  0.74721212  0.79961120    -0.33100
C1206       C  0.71957257  0.78531302  0.80552594    -0.10600
C1207       C  0.74938995  0.80785265  0.78461156    -0.29400
N1208       N  0.79448958  0.75250860  0.70119277    -0.46000
C1209       C  0.77995799  0.71440782  0.69529416    -0.05300
C1210       C  0.75011120  0.69186559  0.71618441    -0.22700
H1211       H  0.69976190  0.68319498  0.76806883     0.19100
H1212       H  0.79971012  0.81652446  0.73270985     0.17900
H1213       H  0.76640572  0.83899933  0.78378527     0.14200
H1214       H  0.73310879  0.66071850  0.71701692     0.14100
H1215       H  0.68267612  0.72405814  0.81165751     0.32200
H1216       H  0.81683880  0.77566581  0.68915897     0.35000
loop_ 
_geom_bond_atom_site_label_1 
_geom_bond_atom_site_label_2 
_geom_bond_distance 
_geom_bond_site_symmetry_2 
_ccdc_geom_bond_type 
O1          Cr19   1.978       .  S
O1            C9   1.261       .  A
O2          Cr19   2.009       .  S
O2            C3   1.265       .  A
C3            O4   1.259       .  A
C3           C73   1.471       .  S
O4          Cr20   1.978       .  S
O5          Cr20   2.004       .  S
O5            C6   1.264       .  A
C6            O7   1.259       .  A
C6          C142   1.469       .  S
O7          Cr21   1.976       .  S
O8          Cr21   2.007       .  S
O8            C9   1.265       .  A
C9           C91   1.470       .  S
O10         Cr19   2.004       .  S
O10          C18   1.264       .  A
O11         Cr19   1.979       .  S
O11          C12   1.260       .  A
C12          O13   1.265       .  A
C12          C52   1.470       .  S
O13         Cr20   2.009       .  S
O14         Cr20   1.977       .  S
O14          C15   1.260       .  A
C15          O16   1.265       .  A
C15         C127   1.470       .  S
O16         Cr21   2.007       .  S
O17         Cr21   1.975       .  S
O17          C18   1.259       .  A
C18         C106   1.468       .  S
Cr19         O22   1.771       .  S
Cr20         O22   1.771       .  S
Cr21         O22   1.771       .  S
O23         Cr41   2.009       .  S
O23          C31   1.265       .  A
O24         Cr41   1.978       .  S
O24          C25   1.261       .  A
C25          O26   1.265       .  A
C25          C88   1.470       .  S
O26         Cr42   2.006       .  S
O27         Cr42   1.976       .  S
O27          C28   1.259       .  A
C28          O29   1.264       .  A
C28         C145   1.469       .  S
O29         Cr43   2.004       .  S
O30         Cr43   1.978       .  S
O30          C31   1.260       .  A
C31          C70   1.471       .  S
O32         Cr41   1.979       .  S
O32          C40   1.260       .  A
O33         Cr41   2.004       .  S
O33          C34   1.264       .  A
C34          O35   1.259       .  A
C34         C109   1.468       .  S
O35         Cr42   1.975       .  S
O36         Cr42   2.006       .  S
O36          C37   1.265       .  A
C37          O38   1.261       .  A
C37         C124   1.470       .  S
O38         Cr43   1.977       .  S
O39         Cr43   2.009       .  S
O39          C40   1.265       .  A
C40          C55   1.470       .  S
Cr41         O44   1.771       .  S
Cr42         O44   1.772       .  S
Cr43         O44   1.771       .  S
C45          C50   1.385       .  A
C45         C198   1.403   1_455  A
C45          N51   1.342       .  A
C46         C197   1.403   1_655  A
C46         C655   1.402   1_556  A
C46          H57   1.082       .  S
C47          C56   1.379       .  A
C47          C48   1.385       .  A
C47         C654   1.402   1_554  A
C48         C201   1.404       .  A
C48          N54   1.343       .  A
C49         C200   1.404       .  A
C49         C658   1.402       .  A
C49          H58   1.082       .  S
C50          C53   1.379       .  A
C50         C657   1.402       .  A
N51          C52   1.355       .  A
N51          H61   1.045       .  S
C52          C53   1.395       .  A
C53          H59   1.082       .  S
N54          C55   1.356       .  A
N54          H62   1.045       .  S
C55          C56   1.395       .  A
C56          H60   1.082       .  S
C63          C68   1.385       .  A
C63         C672   1.403       .  A
C63          N69   1.344       .  A
C64          C65   1.402   1_655  A
C64         C671   1.403       .  A
C64          H75   1.082       .  S
C65          C74   1.377       .  A
C65          C66   1.385       .  A
C66         C675   1.403       .  A
C66          N72   1.344       .  A
C67          C68   1.403       .  A
C67         C674   1.403       .  A
C67          H76   1.082       .  S
C68          C71   1.377       .  A
N69          C70   1.355       .  A
N69          H79   1.045       .  S
C70          C71   1.395       .  A
C71          H77   1.082       .  S
N72          C73   1.356       .  A
N72          H80   1.045       .  S
C73          C74   1.395       .  A
C74          H78   1.082       .  S
C81          C86   1.385       .  A
C81         C386   1.403   1_545  A
C81          N87   1.342       .  A
C82          C83   1.402       .  A
C82         C385   1.403       .  A
C82          H93   1.082       .  S
C83          C92   1.378       .  A
C83          C84   1.385       .  A
C84         C389   1.403       .  A
C84          N90   1.342       .  A
C85          C86   1.402       .  A
C85         C388   1.403   1_545  A
C85          H94   1.082       .  S
C86          C89   1.378       .  A
N87          C88   1.356       .  A
N87          H97   1.045       .  S
C88          C89   1.395       .  A
C89          H95   1.082       .  S
N90          C91   1.356       .  A
N90          H98   1.045       .  S
C91          C92   1.395       .  A
C92          H96   1.082       .  S
C99         C104   1.385       .  A
C99         C404   1.403       .  A
C99         N105   1.342       .  A
C100        C403   1.403   1_545  A
C100        C253   1.401       .  A
C100        H111   1.082       .  S
C101        C110   1.377       .  A
C101        C102   1.385       .  A
C101        C252   1.401   1_554  A
C102        C407   1.402   1_545  A
C102        N108   1.342       .  A
C103        C406   1.402       .  A
C103        C256   1.401   1_554  A
C103        H112   1.082       .  S
C104        C107   1.377       .  A
C104        C255   1.401       .  A
N105        C106   1.355       .  A
N105        H115   1.045       .  S
C106        C107   1.394       .  A
C107        H113   1.082       .  S
N108        C109   1.355       .  A
N108        H116   1.045       .  S
C109        C110   1.394       .  A
C110        H114   1.082       .  S
C117        C122   1.385       .  A
C117        C118   1.403       .  A
C117        N123   1.343       .  A
C118        C271   1.402   1_554  A
C118        H129   1.082       .  S
C119        C128   1.379       .  A
C119        C120   1.385       .  A
C119        C270   1.402       .  A
C120        C121   1.403       .  A
C120        N126   1.343       .  A
C121        C274   1.402       .  A
C121        H130   1.082       .  S
C122        C125   1.378       .  A
C122        C273   1.402   1_554  A
N123        C124   1.356       .  A
N123        H133   1.045       .  S
C124        C125   1.395       .  A
C125        H131   1.082       .  S
N126        C127   1.356       .  A
N126        H134   1.045       .  S
C127        C128   1.395       .  A
C128        H132   1.082       .  S
C135        C140   1.385       .  A
C135        C136   1.403       .  A
C135        N141   1.342       .  A
C136        C137   1.402       .  A
C136        H147   1.082       .  S
C137        C146   1.378       .  A
C137        C138   1.385       .  A
C138        C139   1.403       .  A
C138        N144   1.342       .  A
C139        C140   1.401       .  A
C139        H148   1.082       .  S
C140        C143   1.378       .  A
N141        C142   1.355       .  A
N141        H151   1.045       .  S
C142        C143   1.395       .  A
C143        H149   1.082       .  S
N144        C145   1.355       .  A
N144        H152   1.045       .  S
C145        C146   1.395       .  A
C146        H150   1.082       .  S
O153       Cr171   1.978       .  S
O153        C161   1.261       .  A
O154       Cr171   2.009       .  S
O154        C155   1.265       .  A
C155        O156   1.259       .  A
C155        C225   1.471       .  S
O156       Cr172   1.978       .  S
O157       Cr172   2.004       .  S
O157        C158   1.264       .  A
C158        O159   1.259       .  A
C158        C294   1.469       .  S
O159       Cr173   1.976       .  S
O160       Cr173   2.007       .  S
O160        C161   1.265       .  A
C161        C243   1.470       .  S
O162       Cr171   2.004       .  S
O162        C170   1.264       .  A
O163       Cr171   1.979       .  S
O163        C164   1.260       .  A
C164        O165   1.265       .  A
C164        C204   1.470       .  S
O165       Cr172   2.009       .  S
O166       Cr172   1.977       .  S
O166        C167   1.260       .  A
C167        O168   1.265       .  A
C167        C279   1.470       .  S
O168       Cr173   2.007       .  S
O169       Cr173   1.975       .  S
O169        C170   1.259       .  A
C170        C258   1.468       .  S
Cr171       O174   1.771       .  S
Cr172       O174   1.771       .  S
Cr173       O174   1.771       .  S
O175       Cr193   2.009       .  S
O175        C183   1.265       .  A
O176       Cr193   1.978       .  S
O176        C177   1.261       .  A
C177        O178   1.265       .  A
C177        C240   1.470       .  S
O178       Cr194   2.006       .  S
O179       Cr194   1.976       .  S
O179        C180   1.259       .  A
C180        O181   1.264       .  A
C180        C297   1.469       .  S
O181       Cr195   2.004       .  S
O182       Cr195   1.978       .  S
O182        C183   1.260       .  A
C183        C222   1.471       .  S
O184       Cr193   1.979       .  S
O184        C192   1.260       .  A
O185       Cr193   2.004       .  S
O185        C186   1.264       .  A
C186        O187   1.259       .  A
C186        C261   1.468       .  S
O187       Cr194   1.975       .  S
O188       Cr194   2.006       .  S
O188        C189   1.265       .  A
C189        O190   1.261       .  A
C189        C276   1.470       .  S
O190       Cr195   1.977       .  S
O191       Cr195   2.009       .  S
O191        C192   1.265       .  A
C192        C207   1.470       .  S
Cr193       O196   1.771       .  S
Cr194       O196   1.772       .  S
Cr195       O196   1.771       .  S
C197        C202   1.385       .  A
C197        N203   1.342       .  A
C198        C807   1.402       .  A
C198        H209   1.082       .  S
C199        C806   1.402       .  A
C199        C208   1.379       .  A
C199        C200   1.385       .  A
C200        N206   1.343       .  A
C201        C810   1.402   1_554  A
C201        H210   1.082       .  S
C202        C809   1.402   1_556  A
C202        C205   1.379       .  A
N203        C204   1.355       .  A
N203        H213   1.045       .  S
C204        C205   1.395       .  A
C205        H211   1.082       .  S
N206        C207   1.356       .  A
N206        H214   1.045       .  S
C207        C208   1.395       .  A
C208        H212   1.082       .  S
C215        C220   1.385       .  A
C215        C824   1.403       .  A
C215        N221   1.344       .  A
C216        C823   1.403       .  A
C216        C217   1.402   1_655  A
C216        H227   1.082       .  S
C217        C226   1.377       .  A
C217        C218   1.385       .  A
C218        C827   1.403       .  A
C218        N224   1.344       .  A
C219        C826   1.403       .  A
C219        C220   1.403       .  A
C219        H228   1.082       .  S
C220        C223   1.377       .  A
N221        C222   1.355       .  A
N221        H231   1.045       .  S
C222        C223   1.395       .  A
C223        H229   1.082       .  S
N224        C225   1.356       .  A
N224        H232   1.045       .  S
C225        C226   1.395       .  A
C226        H230   1.082       .  S
C233        C238   1.385       .  A
C233        C538   1.403   1_545  A
C233        N239   1.342       .  A
C234        C537   1.403       .  A
C234        C235   1.402       .  A
C234        H245   1.082       .  S
C235        C244   1.378       .  A
C235        C236   1.385       .  A
C236        C541   1.403       .  A
C236        N242   1.342       .  A
C237        C540   1.403   1_545  A
C237        C238   1.402       .  A
C237        H246   1.082       .  S
C238        C241   1.378       .  A
N239        C240   1.356       .  A
N239        H249   1.045       .  S
C240        C241   1.395       .  A
C241        H247   1.082       .  S
N242        C243   1.356       .  A
N242        H250   1.045       .  S
C243        C244   1.395       .  A
C244        H248   1.082       .  S
C251        C256   1.385       .  A
C251        C556   1.403       .  A
C251        N257   1.342       .  A
C252        C555   1.403   1_545  A
C252        H263   1.082       .  S
C253        C262   1.377       .  A
C253        C254   1.385       .  A
C254        C559   1.402   1_545  A
C254        N260   1.342       .  A
C255        C558   1.402       .  A
C255        H264   1.082       .  S
C256        C259   1.377       .  A
N257        C258   1.355       .  A
N257        H267   1.045       .  S
C258        C259   1.394       .  A
C259        H265   1.082       .  S
N260        C261   1.355       .  A
N260        H268   1.045       .  S
C261        C262   1.394       .  A
C262        H266   1.082       .  S
C269        C274   1.385       .  A
C269        C270   1.403       .  A
C269        N275   1.343       .  A
C270        H281   1.082       .  S
C271        C280   1.379       .  A
C271        C272   1.385       .  A
C272        C273   1.403       .  A
C272        N278   1.343       .  A
C273        H282   1.082       .  S
C274        C277   1.378       .  A
N275        C276   1.356       .  A
N275        H285   1.045       .  S
C276        C277   1.395       .  A
C277        H283   1.082       .  S
N278        C279   1.356       .  A
N278        H286   1.045       .  S
C279        C280   1.395       .  A
C280        H284   1.082       .  S
C287        C292   1.385       .  A
C287        C288   1.403       .  A
C287        N293   1.342       .  A
C288        C289   1.402       .  A
C288        H299   1.082       .  S
C289        C298   1.378       .  A
C289        C290   1.385       .  A
C290        C291   1.403       .  A
C290        N296   1.342       .  A
C291        C292   1.401       .  A
C291        H300   1.082       .  S
C292        C295   1.378       .  A
N293        C294   1.355       .  A
N293        H303   1.045       .  S
C294        C295   1.395       .  A
C295        H301   1.082       .  S
N296        C297   1.355       .  A
N296        H304   1.045       .  S
C297        C298   1.395       .  A
C298        H302   1.082       .  S
O305       Cr323   1.978       .  S
O305        C313   1.261       .  A
O306       Cr323   2.009       .  S
O306        C307   1.265       .  A
C307        O308   1.259       .  A
C307        C377   1.471       .  S
O308       Cr324   1.978       .  S
O309       Cr324   2.004       .  S
O309        C310   1.264       .  A
C310        O311   1.259       .  A
C310        C446   1.469       .  S
O311       Cr325   1.976       .  S
O312       Cr325   2.007       .  S
O312        C313   1.265       .  A
C313        C395   1.470       .  S
O314       Cr323   2.004       .  S
O314        C322   1.264       .  A
O315       Cr323   1.979       .  S
O315        C316   1.260       .  A
C316        O317   1.265       .  A
C316        C356   1.470       .  S
O317       Cr324   2.009       .  S
O318       Cr324   1.977       .  S
O318        C319   1.260       .  A
C319        O320   1.265       .  A
C319        C431   1.470       .  S
O320       Cr325   2.007       .  S
O321       Cr325   1.975       .  S
O321        C322   1.259       .  A
C322        C410   1.468       .  S
Cr323       O326   1.771       .  S
Cr324       O326   1.771       .  S
Cr325       O326   1.771       .  S
O327       Cr345   2.009       .  S
O327        C335   1.265       .  A
O328       Cr345   1.978       .  S
O328        C329   1.261       .  A
C329        O330   1.265       .  A
C329        C392   1.470       .  S
O330       Cr346   2.006       .  S
O331       Cr346   1.976       .  S
O331        C332   1.259       .  A
C332        O333   1.264       .  A
C332        C449   1.469       .  S
O333       Cr347   2.004       .  S
O334       Cr347   1.978       .  S
O334        C335   1.260       .  A
C335        C374   1.471       .  S
O336       Cr345   1.979       .  S
O336        C344   1.260       .  A
O337       Cr345   2.004       .  S
O337        C338   1.264       .  A
C338        O339   1.259       .  A
C338        C413   1.468       .  S
O339       Cr346   1.975       .  S
O340       Cr346   2.006       .  S
O340        C341   1.265       .  A
C341        O342   1.261       .  A
C341        C428   1.470       .  S
O342       Cr347   1.977       .  S
O343       Cr347   2.009       .  S
O343        C344   1.265       .  A
C344        C359   1.470       .  S
Cr345       O348   1.771       .  S
Cr346       O348   1.772       .  S
Cr347       O348   1.771       .  S
C349        C354   1.385       .  A
C349        C502   1.403   1_455  A
C349        N355   1.342       .  A
C350        C501   1.403   1_655  A
C350        C959   1.402   1_556  A
C350        H361   1.082       .  S
C351        C958   1.402   1_554  A
C351        C360   1.379       .  A
C351        C352   1.385       .  A
C352        C505   1.404       .  A
C352        N358   1.343       .  A
C353        C504   1.404       .  A
C353        C962   1.402       .  A
C353        H362   1.082       .  S
C354        C961   1.402       .  A
C354        C357   1.379       .  A
N355        C356   1.355       .  A
N355        H365   1.045       .  S
C356        C357   1.395       .  A
C357        H363   1.082       .  S
N358        C359   1.356       .  A
N358        H366   1.045       .  S
C359        C360   1.395       .  A
C360        H364   1.082       .  S
C367        C372   1.385       .  A
C367        C976   1.403       .  A
C367        N373   1.344       .  A
C368        C975   1.403       .  A
C368        C369   1.402   1_655  A
C368        H379   1.082       .  S
C369        C378   1.377       .  A
C369        C370   1.385       .  A
C370        C979   1.403       .  A
C370        N376   1.344       .  A
C371        C978   1.403       .  A
C371        C372   1.403       .  A
C371        H380   1.082       .  S
C372        C375   1.377       .  A
N373        C374   1.355       .  A
N373        H383   1.045       .  S
C374        C375   1.395       .  A
C375        H381   1.082       .  S
N376        C377   1.356       .  A
N376        H384   1.045       .  S
C377        C378   1.395       .  A
C378        H382   1.082       .  S
C385        C390   1.385       .  A
C385        N391   1.342       .  A
C386        C387   1.402       .  A
C386        H397   1.082       .  S
C387        C396   1.378       .  A
C387        C388   1.385       .  A
C388        N394   1.342       .  A
C389        C390   1.402       .  A
C389        H398   1.082       .  S
C390        C393   1.378       .  A
N391        C392   1.356       .  A
N391        H401   1.045       .  S
C392        C393   1.395       .  A
C393        H399   1.082       .  S
N394        C395   1.356       .  A
N394        H402   1.045       .  S
C395        C396   1.395       .  A
C396        H400   1.082       .  S
C403        C408   1.385       .  A
C403        N409   1.342       .  A
C404        C557   1.401       .  A
C404        H415   1.082       .  S
C405        C556   1.401   1_554  A
C405        C414   1.377       .  A
C405        C406   1.385       .  A
C406        N412   1.342       .  A
C407        C560   1.401   1_554  A
C407        H416   1.082       .  S
C408        C559   1.401       .  A
C408        C411   1.377       .  A
N409        C410   1.355       .  A
N409        H419   1.045       .  S
C410        C411   1.394       .  A
C411        H417   1.082       .  S
N412        C413   1.355       .  A
N412        H420   1.045       .  S
C413        C414   1.394       .  A
C414        H418   1.082       .  S
C421        C426   1.385       .  A
C421        C422   1.403       .  A
C421        N427   1.343       .  A
C422        C575   1.402   1_554  A
C422        H433   1.082       .  S
C423        C574   1.402       .  A
C423        C432   1.379       .  A
C423        C424   1.385       .  A
C424        C425   1.403       .  A
C424        N430   1.343       .  A
C425        C578   1.402       .  A
C425        H434   1.082       .  S
C426        C577   1.402   1_554  A
C426        C429   1.378       .  A
N427        C428   1.356       .  A
N427        H437   1.045       .  S
C428        C429   1.395       .  A
C429        H435   1.082       .  S
N430        C431   1.356       .  A
N430        H438   1.045       .  S
C431        C432   1.395       .  A
C432        H436   1.082       .  S
C439        C444   1.385       .  A
C439        C440   1.403       .  A
C439        N445   1.342       .  A
C440        C441   1.402       .  A
C440        H451   1.082       .  S
C441        C450   1.378       .  A
C441        C442   1.385       .  A
C442        C443   1.403       .  A
C442        N448   1.342       .  A
C443        C444   1.401       .  A
C443        H452   1.082       .  S
C444        C447   1.378       .  A
N445        C446   1.355       .  A
N445        H455   1.045       .  S
C446        C447   1.395       .  A
C447        H453   1.082       .  S
N448        C449   1.355       .  A
N448        H456   1.045       .  S
C449        C450   1.395       .  A
C450        H454   1.082       .  S
O457       Cr475   1.978       .  S
O457        C465   1.261       .  A
O458       Cr475   2.009       .  S
O458        C459   1.265       .  A
C459        O460   1.259       .  A
C459        C529   1.471       .  S
O460       Cr476   1.978       .  S
O461       Cr476   2.004       .  S
O461        C462   1.264       .  A
C462        O463   1.259       .  A
C462        C598   1.469       .  S
O463       Cr477   1.976       .  S
O464       Cr477   2.007       .  S
O464        C465   1.265       .  A
C465        C547   1.470       .  S
O466       Cr475   2.004       .  S
O466        C474   1.264       .  A
O467       Cr475   1.979       .  S
O467        C468   1.260       .  A
C468        O469   1.265       .  A
C468        C508   1.470       .  S
O469       Cr476   2.009       .  S
O470       Cr476   1.977       .  S
O470        C471   1.260       .  A
C471        O472   1.265       .  A
C471        C583   1.470       .  S
O472       Cr477   2.007       .  S
O473       Cr477   1.975       .  S
O473        C474   1.259       .  A
C474        C562   1.468       .  S
Cr475       O478   1.771       .  S
Cr476       O478   1.771       .  S
Cr477       O478   1.771       .  S
O479       Cr497   2.009       .  S
O479        C487   1.265       .  A
O480       Cr497   1.978       .  S
O480        C481   1.261       .  A
C481        O482   1.265       .  A
C481        C544   1.470       .  S
O482       Cr498   2.006       .  S
O483       Cr498   1.976       .  S
O483        C484   1.259       .  A
C484        O485   1.264       .  A
C484        C601   1.469       .  S
O485       Cr499   2.004       .  S
O486       Cr499   1.978       .  S
O486        C487   1.260       .  A
C487        C526   1.471       .  S
O488       Cr497   1.979       .  S
O488        C496   1.260       .  A
O489       Cr497   2.004       .  S
O489        C490   1.264       .  A
C490        O491   1.259       .  A
C490        C565   1.468       .  S
O491       Cr498   1.975       .  S
O492       Cr498   2.006       .  S
O492        C493   1.265       .  A
C493        O494   1.261       .  A
C493        C580   1.470       .  S
O494       Cr499   1.977       .  S
O495       Cr499   2.009       .  S
O495        C496   1.265       .  A
C496        C511   1.470       .  S
Cr497       O500   1.771       .  S
Cr498       O500   1.772       .  S
Cr499       O500   1.771       .  S
C501        C506   1.385       .  A
C501        N507   1.342       .  A
C502       C1111   1.402       .  A
C502        H513   1.082       .  S
C503       C1110   1.402       .  A
C503        C512   1.379       .  A
C503        C504   1.385       .  A
C504        N510   1.343       .  A
C505       C1114   1.402   1_554  A
C505        H514   1.082       .  S
C506       C1113   1.402   1_556  A
C506        C509   1.379       .  A
N507        C508   1.355       .  A
N507        H517   1.045       .  S
C508        C509   1.395       .  A
C509        H515   1.082       .  S
N510        C511   1.356       .  A
N510        H518   1.045       .  S
C511        C512   1.395       .  A
C512        H516   1.082       .  S
C519        C524   1.385       .  A
C519       C1128   1.403       .  A
C519        N525   1.344       .  A
C520       C1127   1.403       .  A
C520        C521   1.402   1_655  A
C520        H531   1.082       .  S
C521        C530   1.377       .  A
C521        C522   1.385       .  A
C522       C1131   1.403       .  A
C522        N528   1.344       .  A
C523       C1130   1.403       .  A
C523        C524   1.403       .  A
C523        H532   1.082       .  S
C524        C527   1.377       .  A
N525        C526   1.355       .  A
N525        H535   1.045       .  S
C526        C527   1.395       .  A
C527        H533   1.082       .  S
N528        C529   1.356       .  A
N528        H536   1.045       .  S
C529        C530   1.395       .  A
C530        H534   1.082       .  S
C537        C542   1.385       .  A
C537        N543   1.342       .  A
C538        C539   1.402       .  A
C538        H549   1.082       .  S
C539        C548   1.378       .  A
C539        C540   1.385       .  A
C540        N546   1.342       .  A
C541        C542   1.402       .  A
C541        H550   1.082       .  S
C542        C545   1.378       .  A
N543        C544   1.356       .  A
N543        H553   1.045       .  S
C544        C545   1.395       .  A
C545        H551   1.082       .  S
N546        C547   1.356       .  A
N546        H554   1.045       .  S
C547        C548   1.395       .  A
C548        H552   1.082       .  S
C555        C560   1.385       .  A
C555        N561   1.342       .  A
C556        H567   1.082       .  S
C557        C566   1.377       .  A
C557        C558   1.385       .  A
C558        N564   1.342       .  A
C559        H568   1.082       .  S
C560        C563   1.377       .  A
N561        C562   1.355       .  A
N561        H571   1.045       .  S
C562        C563   1.394       .  A
C563        H569   1.082       .  S
N564        C565   1.355       .  A
N564        H572   1.045       .  S
C565        C566   1.394       .  A
C566        H570   1.082       .  S
C573        C578   1.385       .  A
C573        C574   1.403       .  A
C573        N579   1.343       .  A
C574        H585   1.082       .  S
C575        C584   1.379       .  A
C575        C576   1.385       .  A
C576        C577   1.403       .  A
C576        N582   1.343       .  A
C577        H586   1.082       .  S
C578        C581   1.378       .  A
N579        C580   1.356       .  A
N579        H589   1.045       .  S
C580        C581   1.395       .  A
C581        H587   1.082       .  S
N582        C583   1.356       .  A
N582        H590   1.045       .  S
C583        C584   1.395       .  A
C584        H588   1.082       .  S
C591        C596   1.385       .  A
C591        C592   1.403       .  A
C591        N597   1.342       .  A
C592        C593   1.402       .  A
C592        H603   1.082       .  S
C593        C602   1.378       .  A
C593        C594   1.385       .  A
C594        C595   1.403       .  A
C594        N600   1.342       .  A
C595        C596   1.401       .  A
C595        H604   1.082       .  S
C596        C599   1.378       .  A
N597        C598   1.355       .  A
N597        H607   1.045       .  S
C598        C599   1.395       .  A
C599        H605   1.082       .  S
N600        C601   1.355       .  A
N600        H608   1.045       .  S
C601        C602   1.395       .  A
C602        H606   1.082       .  S
O609       Cr627   1.978       .  S
O609        C617   1.261       .  A
O610       Cr627   2.009       .  S
O610        C611   1.265       .  A
C611        O612   1.259       .  A
C611        C681   1.471       .  S
O612       Cr628   1.978       .  S
O613       Cr628   2.004       .  S
O613        C614   1.264       .  A
C614        O615   1.259       .  A
C614        C750   1.469       .  S
O615       Cr629   1.976       .  S
O616       Cr629   2.007       .  S
O616        C617   1.265       .  A
C617        C699   1.470       .  S
O618       Cr627   2.004       .  S
O618        C626   1.264       .  A
O619       Cr627   1.979       .  S
O619        C620   1.260       .  A
C620        O621   1.265       .  A
C620        C660   1.470       .  S
O621       Cr628   2.009       .  S
O622       Cr628   1.977       .  S
O622        C623   1.260       .  A
C623        O624   1.265       .  A
C623        C735   1.470       .  S
O624       Cr629   2.007       .  S
O625       Cr629   1.975       .  S
O625        C626   1.259       .  A
C626        C714   1.468       .  S
Cr627       O630   1.771       .  S
Cr628       O630   1.771       .  S
Cr629       O630   1.771       .  S
O631       Cr649   2.009       .  S
O631        C639   1.265       .  A
O632       Cr649   1.978       .  S
O632        C633   1.261       .  A
C633        O634   1.265       .  A
C633        C696   1.470       .  S
O634       Cr650   2.006       .  S
O635       Cr650   1.976       .  S
O635        C636   1.259       .  A
C636        O637   1.264       .  A
C636        C753   1.469       .  S
O637       Cr651   2.004       .  S
O638       Cr651   1.978       .  S
O638        C639   1.260       .  A
C639        C678   1.471       .  S
O640       Cr649   1.979       .  S
O640        C648   1.260       .  A
O641       Cr649   2.004       .  S
O641        C642   1.264       .  A
C642        O643   1.259       .  A
C642        C717   1.468       .  S
O643       Cr650   1.975       .  S
O644       Cr650   2.006       .  S
O644        C645   1.265       .  A
C645        O646   1.261       .  A
C645        C732   1.470       .  S
O646       Cr651   1.977       .  S
O647       Cr651   2.009       .  S
O647        C648   1.265       .  A
C648        C663   1.470       .  S
Cr649       O652   1.771       .  S
Cr650       O652   1.772       .  S
Cr651       O652   1.771       .  S
C653        C658   1.385       .  A
C653        C806   1.403       .  A
C653        N659   1.342       .  A
C654        C805   1.403       .  A
C654        H665   1.082       .  S
C655        C664   1.379       .  A
C655        C656   1.385       .  A
C656        C809   1.404   1_655  A
C656        N662   1.343       .  A
C657        C808   1.404   1_455  A
C657        H666   1.082       .  S
C658        C661   1.379       .  A
N659        C660   1.355       .  A
N659        H669   1.045       .  S
C660        C661   1.395       .  A
C661        H667   1.082       .  S
N662        C663   1.356       .  A
N662        H670   1.045       .  S
C663        C664   1.395       .  A
C664        H668   1.082       .  S
C671        C676   1.385       .  A
C671        N677   1.344       .  A
C672        C673   1.402       .  A
C672        H683   1.082       .  S
C673        C682   1.377       .  A
C673        C674   1.385       .  A
C674        N680   1.344       .  A
C675        C676   1.403   1_455  A
C675        H684   1.082       .  S
C676        C679   1.377       .  A
N677        C678   1.355       .  A
N677        H687   1.045       .  S
C678        C679   1.395       .  A
C679        H685   1.082       .  S
N680        C681   1.356       .  A
N680        H688   1.045       .  S
C681        C682   1.395       .  A
C682        H686   1.082       .  S
C689        C694   1.385       .  A
C689        C994   1.403   1_545  A
C689        N695   1.342       .  A
C690        C993   1.403       .  A
C690        C691   1.402       .  A
C690        H701   1.082       .  S
C691        C700   1.378       .  A
C691        C692   1.385       .  A
C692        C997   1.403       .  A
C692        N698   1.342       .  A
C693        C996   1.403   1_545  A
C693        C694   1.402       .  A
C693        H702   1.082       .  S
C694        C697   1.378       .  A
N695        C696   1.356       .  A
N695        H705   1.045       .  S
C696        C697   1.395       .  A
C697        H703   1.082       .  S
N698        C699   1.356       .  A
N698        H706   1.045       .  S
C699        C700   1.395       .  A
C700        H704   1.082       .  S
C707        C712   1.385       .  A
C707       C1012   1.403       .  A
C707        N713   1.342       .  A
C708       C1011   1.403   1_545  A
C708        C861   1.401       .  A
C708        H719   1.082       .  S
C709        C860   1.401   1_554  A
C709        C718   1.377       .  A
C709        C710   1.385       .  A
C710       C1015   1.402   1_545  A
C710        N716   1.342       .  A
C711       C1014   1.402       .  A
C711        C864   1.401   1_554  A
C711        H720   1.082       .  S
C712        C863   1.401       .  A
C712        C715   1.377       .  A
N713        C714   1.355       .  A
N713        H723   1.045       .  S
C714        C715   1.394       .  A
C715        H721   1.082       .  S
N716        C717   1.355       .  A
N716        H724   1.045       .  S
C717        C718   1.394       .  A
C718        H722   1.082       .  S
C725        C730   1.385       .  A
C725        C726   1.403       .  A
C725        N731   1.343       .  A
C726        C879   1.402   1_554  A
C726        H737   1.082       .  S
C727        C878   1.402       .  A
C727        C736   1.379       .  A
C727        C728   1.385       .  A
C728        C729   1.403       .  A
C728        N734   1.343       .  A
C729        C882   1.402       .  A
C729        H738   1.082       .  S
C730        C881   1.402   1_554  A
C730        C733   1.378       .  A
N731        C732   1.356       .  A
N731        H741   1.045       .  S
C732        C733   1.395       .  A
C733        H739   1.082       .  S
N734        C735   1.356       .  A
N734        H742   1.045       .  S
C735        C736   1.395       .  A
C736        H740   1.082       .  S
C743        C748   1.385       .  A
C743        C744   1.403       .  A
C743        N749   1.342       .  A
C744        C745   1.402       .  A
C744        H755   1.082       .  S
C745        C754   1.378       .  A
C745        C746   1.385       .  A
C746        C747   1.403       .  A
C746        N752   1.342       .  A
C747        C748   1.401       .  A
C747        H756   1.082       .  S
C748        C751   1.378       .  A
N749        C750   1.355       .  A
N749        H759   1.045       .  S
C750        C751   1.395       .  A
C751        H757   1.082       .  S
N752        C753   1.355       .  A
N752        H760   1.045       .  S
C753        C754   1.395       .  A
C754        H758   1.082       .  S
O761       Cr779   1.978       .  S
O761        C769   1.261       .  A
O762       Cr779   2.009       .  S
O762        C763   1.265       .  A
C763        O764   1.259       .  A
C763        C833   1.471       .  S
O764       Cr780   1.978       .  S
O765       Cr780   2.004       .  S
O765        C766   1.264       .  A
C766        O767   1.259       .  A
C766        C902   1.469       .  S
O767       Cr781   1.976       .  S
O768       Cr781   2.007       .  S
O768        C769   1.265       .  A
C769        C851   1.470       .  S
O770       Cr779   2.004       .  S
O770        C778   1.264       .  A
O771       Cr779   1.979       .  S
O771        C772   1.260       .  A
C772        O773   1.265       .  A
C772        C812   1.470       .  S
O773       Cr780   2.009       .  S
O774       Cr780   1.977       .  S
O774        C775   1.260       .  A
C775        O776   1.265       .  A
C775        C887   1.470       .  S
O776       Cr781   2.007       .  S
O777       Cr781   1.975       .  S
O777        C778   1.259       .  A
C778        C866   1.468       .  S
Cr779       O782   1.771       .  S
Cr780       O782   1.771       .  S
Cr781       O782   1.771       .  S
O783       Cr801   2.009       .  S
O783        C791   1.265       .  A
O784       Cr801   1.978       .  S
O784        C785   1.261       .  A
C785        O786   1.265       .  A
C785        C848   1.470       .  S
O786       Cr802   2.006       .  S
O787       Cr802   1.976       .  S
O787        C788   1.259       .  A
C788        O789   1.264       .  A
C788        C905   1.469       .  S
O789       Cr803   2.004       .  S
O790       Cr803   1.978       .  S
O790        C791   1.260       .  A
C791        C830   1.471       .  S
O792       Cr801   1.979       .  S
O792        C800   1.260       .  A
O793       Cr801   2.004       .  S
O793        C794   1.264       .  A
C794        O795   1.259       .  A
C794        C869   1.468       .  S
O795       Cr802   1.975       .  S
O796       Cr802   2.006       .  S
O796        C797   1.265       .  A
C797        O798   1.261       .  A
C797        C884   1.470       .  S
O798       Cr803   1.977       .  S
O799       Cr803   2.009       .  S
O799        C800   1.265       .  A
C800        C815   1.470       .  S
Cr801       O804   1.771       .  S
Cr802       O804   1.772       .  S
Cr803       O804   1.771       .  S
C805        C810   1.385       .  A
C805        N811   1.342       .  A
C806        H817   1.082       .  S
C807        C816   1.379       .  A
C807        C808   1.385       .  A
C808        N814   1.343       .  A
C809        H818   1.082       .  S
C810        C813   1.379       .  A
N811        C812   1.355       .  A
N811        H821   1.045       .  S
C812        C813   1.395       .  A
C813        H819   1.082       .  S
N814        C815   1.356       .  A
N814        H822   1.045       .  S
C815        C816   1.395       .  A
C816        H820   1.082       .  S
C823        C828   1.385       .  A
C823        N829   1.344       .  A
C824        C825   1.402       .  A
C824        H835   1.082       .  S
C825        C834   1.377       .  A
C825        C826   1.385       .  A
C826        N832   1.344       .  A
C827        C828   1.403   1_455  A
C827        H836   1.082       .  S
C828        C831   1.377       .  A
N829        C830   1.355       .  A
N829        H839   1.045       .  S
C830        C831   1.395       .  A
C831        H837   1.082       .  S
N832        C833   1.356       .  A
N832        H840   1.045       .  S
C833        C834   1.395       .  A
C834        H838   1.082       .  S
C841        C846   1.385       .  A
C841       C1146   1.403   1_545  A
C841        N847   1.342       .  A
C842       C1145   1.403       .  A
C842        C843   1.402       .  A
C842        H853   1.082       .  S
C843        C852   1.378       .  A
C843        C844   1.385       .  A
C844       C1149   1.403       .  A
C844        N850   1.342       .  A
C845       C1148   1.403   1_545  A
C845        C846   1.402       .  A
C845        H854   1.082       .  S
C846        C849   1.378       .  A
N847        C848   1.356       .  A
N847        H857   1.045       .  S
C848        C849   1.395       .  A
C849        H855   1.082       .  S
N850        C851   1.356       .  A
N850        H858   1.045       .  S
C851        C852   1.395       .  A
C852        H856   1.082       .  S
C859        C864   1.385       .  A
C859       C1164   1.403       .  A
C859        N865   1.342       .  A
C860       C1163   1.403   1_545  A
C860        H871   1.082       .  S
C861        C870   1.377       .  A
C861        C862   1.385       .  A
C862       C1167   1.402   1_545  A
C862        N868   1.342       .  A
C863       C1166   1.402       .  A
C863        H872   1.082       .  S
C864        C867   1.377       .  A
N865        C866   1.355       .  A
N865        H875   1.045       .  S
C866        C867   1.394       .  A
C867        H873   1.082       .  S
N868        C869   1.355       .  A
N868        H876   1.045       .  S
C869        C870   1.394       .  A
C870        H874   1.082       .  S
C877        C882   1.385       .  A
C877        C878   1.403       .  A
C877        N883   1.343       .  A
C878        H889   1.082       .  S
C879        C888   1.379       .  A
C879        C880   1.385       .  A
C880        C881   1.403       .  A
C880        N886   1.343       .  A
C881        H890   1.082       .  S
C882        C885   1.378       .  A
N883        C884   1.356       .  A
N883        H893   1.045       .  S
C884        C885   1.395       .  A
C885        H891   1.082       .  S
N886        C887   1.356       .  A
N886        H894   1.045       .  S
C887        C888   1.395       .  A
C888        H892   1.082       .  S
C895        C900   1.385       .  A
C895        C896   1.403       .  A
C895        N901   1.342       .  A
C896        C897   1.402       .  A
C896        H907   1.082       .  S
C897        C906   1.378       .  A
C897        C898   1.385       .  A
C898        C899   1.403       .  A
C898        N904   1.342       .  A
C899        C900   1.401       .  A
C899        H908   1.082       .  S
C900        C903   1.378       .  A
N901        C902   1.355       .  A
N901        H911   1.045       .  S
C902        C903   1.395       .  A
C903        H909   1.082       .  S
N904        C905   1.355       .  A
N904        H912   1.045       .  S
C905        C906   1.395       .  A
C906        H910   1.082       .  S
O913       Cr931   1.978       .  S
O913        C921   1.261       .  A
O914       Cr931   2.009       .  S
O914        C915   1.265       .  A
C915        O916   1.259       .  A
C915        C985   1.471       .  S
O916       Cr932   1.978       .  S
O917       Cr932   2.004       .  S
O917        C918   1.264       .  A
C918        O919   1.259       .  A
C918       C1054   1.469       .  S
O919       Cr933   1.976       .  S
O920       Cr933   2.007       .  S
O920        C921   1.265       .  A
C921       C1003   1.470       .  S
O922       Cr931   2.004       .  S
O922        C930   1.264       .  A
O923       Cr931   1.979       .  S
O923        C924   1.260       .  A
C924        O925   1.265       .  A
C924        C964   1.470       .  S
O925       Cr932   2.009       .  S
O926       Cr932   1.977       .  S
O926        C927   1.260       .  A
C927        O928   1.265       .  A
C927       C1039   1.470       .  S
O928       Cr933   2.007       .  S
O929       Cr933   1.975       .  S
O929        C930   1.259       .  A
C930       C1018   1.468       .  S
Cr931       O934   1.771       .  S
Cr932       O934   1.771       .  S
Cr933       O934   1.771       .  S
O935       Cr953   2.009       .  S
O935        C943   1.265       .  A
O936       Cr953   1.978       .  S
O936        C937   1.261       .  A
C937        O938   1.265       .  A
C937       C1000   1.470       .  S
O938       Cr954   2.006       .  S
O939       Cr954   1.976       .  S
O939        C940   1.259       .  A
C940        O941   1.264       .  A
C940       C1057   1.469       .  S
O941       Cr955   2.004       .  S
O942       Cr955   1.978       .  S
O942        C943   1.260       .  A
C943        C982   1.471       .  S
O944       Cr953   1.979       .  S
O944        C952   1.260       .  A
O945       Cr953   2.004       .  S
O945        C946   1.264       .  A
C946        O947   1.259       .  A
C946       C1021   1.468       .  S
O947       Cr954   1.975       .  S
O948       Cr954   2.006       .  S
O948        C949   1.265       .  A
C949        O950   1.261       .  A
C949       C1036   1.470       .  S
O950       Cr955   1.977       .  S
O951       Cr955   2.009       .  S
O951        C952   1.265       .  A
C952        C967   1.470       .  S
Cr953       O956   1.771       .  S
Cr954       O956   1.772       .  S
Cr955       O956   1.771       .  S
C957        C962   1.385       .  A
C957       C1110   1.403       .  A
C957        N963   1.342       .  A
C958       C1109   1.403       .  A
C958        H969   1.082       .  S
C959        C968   1.379       .  A
C959        C960   1.385       .  A
C960       C1113   1.404   1_655  A
C960        N966   1.343       .  A
C961       C1112   1.404   1_455  A
C961        H970   1.082       .  S
C962        C965   1.379       .  A
N963        C964   1.355       .  A
N963        H973   1.045       .  S
C964        C965   1.395       .  A
C965        H971   1.082       .  S
N966        C967   1.356       .  A
N966        H974   1.045       .  S
C967        C968   1.395       .  A
C968        H972   1.082       .  S
C975        C980   1.385       .  A
C975        N981   1.344       .  A
C976        C977   1.402       .  A
C976        H987   1.082       .  S
C977        C986   1.377       .  A
C977        C978   1.385       .  A
C978        N984   1.344       .  A
C979        C980   1.403   1_455  A
C979        H988   1.082       .  S
C980        C983   1.377       .  A
N981        C982   1.355       .  A
N981        H991   1.045       .  S
C982        C983   1.395       .  A
C983        H989   1.082       .  S
N984        C985   1.356       .  A
N984        H992   1.045       .  S
C985        C986   1.395       .  A
C986        H990   1.082       .  S
C993        C998   1.385       .  A
C993        N999   1.342       .  A
C994        C995   1.402       .  A
C994       H1005   1.082       .  S
C995       C1004   1.378       .  A
C995        C996   1.385       .  A
C996       N1002   1.342       .  A
C997        C998   1.402       .  A
C997       H1006   1.082       .  S
C998       C1001   1.378       .  A
N999       C1000   1.356       .  A
N999       H1009   1.045       .  S
C1000      C1001   1.395       .  A
C1001      H1007   1.082       .  S
N1002      C1003   1.356       .  A
N1002      H1010   1.045       .  S
C1003      C1004   1.395       .  A
C1004      H1008   1.082       .  S
C1011      C1016   1.385       .  A
C1011      N1017   1.342       .  A
C1012      C1165   1.401       .  A
C1012      H1023   1.082       .  S
C1013      C1164   1.401   1_554  A
C1013      C1022   1.377       .  A
C1013      C1014   1.385       .  A
C1014      N1020   1.342       .  A
C1015      C1168   1.401   1_554  A
C1015      H1024   1.082       .  S
C1016      C1167   1.401       .  A
C1016      C1019   1.377       .  A
N1017      C1018   1.355       .  A
N1017      H1027   1.045       .  S
C1018      C1019   1.394       .  A
C1019      H1025   1.082       .  S
N1020      C1021   1.355       .  A
N1020      H1028   1.045       .  S
C1021      C1022   1.394       .  A
C1022      H1026   1.082       .  S
C1029      C1034   1.385       .  A
C1029      C1030   1.403       .  A
C1029      N1035   1.343       .  A
C1030      C1183   1.402   1_554  A
C1030      H1041   1.082       .  S
C1031      C1182   1.402       .  A
C1031      C1040   1.379       .  A
C1031      C1032   1.385       .  A
C1032      C1033   1.403       .  A
C1032      N1038   1.343       .  A
C1033      C1186   1.402       .  A
C1033      H1042   1.082       .  S
C1034      C1185   1.402   1_554  A
C1034      C1037   1.378       .  A
N1035      C1036   1.356       .  A
N1035      H1045   1.045       .  S
C1036      C1037   1.395       .  A
C1037      H1043   1.082       .  S
N1038      C1039   1.356       .  A
N1038      H1046   1.045       .  S
C1039      C1040   1.395       .  A
C1040      H1044   1.082       .  S
C1047      C1052   1.385       .  A
C1047      C1048   1.403       .  A
C1047      N1053   1.342       .  A
C1048      C1049   1.402       .  A
C1048      H1059   1.082       .  S
C1049      C1058   1.378       .  A
C1049      C1050   1.385       .  A
C1050      C1051   1.403       .  A
C1050      N1056   1.342       .  A
C1051      C1052   1.401       .  A
C1051      H1060   1.082       .  S
C1052      C1055   1.378       .  A
N1053      C1054   1.355       .  A
N1053      H1063   1.045       .  S
C1054      C1055   1.395       .  A
C1055      H1061   1.082       .  S
N1056      C1057   1.355       .  A
N1056      H1064   1.045       .  S
C1057      C1058   1.395       .  A
C1058      H1062   1.082       .  S
O1065     Cr1083   1.978       .  S
O1065      C1073   1.261       .  A
O1066     Cr1083   2.009       .  S
O1066      C1067   1.265       .  A
C1067      O1068   1.259       .  A
C1067      C1137   1.471       .  S
O1068     Cr1084   1.978       .  S
O1069     Cr1084   2.004       .  S
O1069      C1070   1.264       .  A
C1070      O1071   1.259       .  A
C1070      C1206   1.469       .  S
O1071     Cr1085   1.976       .  S
O1072     Cr1085   2.007       .  S
O1072      C1073   1.265       .  A
C1073      C1155   1.470       .  S
O1074     Cr1083   2.004       .  S
O1074      C1082   1.264       .  A
O1075     Cr1083   1.979       .  S
O1075      C1076   1.260       .  A
C1076      O1077   1.265       .  A
C1076      C1116   1.470       .  S
O1077     Cr1084   2.009       .  S
O1078     Cr1084   1.977       .  S
O1078      C1079   1.260       .  A
C1079      O1080   1.265       .  A
C1079      C1191   1.470       .  S
O1080     Cr1085   2.007       .  S
O1081     Cr1085   1.975       .  S
O1081      C1082   1.259       .  A
C1082      C1170   1.468       .  S
Cr1083     O1086   1.771       .  S
Cr1084     O1086   1.771       .  S
Cr1085     O1086   1.771       .  S
O1087     Cr1105   2.009       .  S
O1087      C1095   1.265       .  A
O1088     Cr1105   1.978       .  S
O1088      C1089   1.261       .  A
C1089      O1090   1.265       .  A
C1089      C1152   1.470       .  S
O1090     Cr1106   2.006       .  S
O1091     Cr1106   1.976       .  S
O1091      C1092   1.259       .  A
C1092      O1093   1.264       .  A
C1092      C1209   1.469       .  S
O1093     Cr1107   2.004       .  S
O1094     Cr1107   1.978       .  S
O1094      C1095   1.260       .  A
C1095      C1134   1.471       .  S
O1096     Cr1105   1.979       .  S
O1096      C1104   1.260       .  A
O1097     Cr1105   2.004       .  S
O1097      C1098   1.264       .  A
C1098      O1099   1.259       .  A
C1098      C1173   1.468       .  S
O1099     Cr1106   1.975       .  S
O1100     Cr1106   2.006       .  S
O1100      C1101   1.265       .  A
C1101      O1102   1.261       .  A
C1101      C1188   1.470       .  S
O1102     Cr1107   1.977       .  S
O1103     Cr1107   2.009       .  S
O1103      C1104   1.265       .  A
C1104      C1119   1.470       .  S
Cr1105     O1108   1.771       .  S
Cr1106     O1108   1.772       .  S
Cr1107     O1108   1.771       .  S
C1109      C1114   1.385       .  A
C1109      N1115   1.342       .  A
C1110      H1121   1.082       .  S
C1111      C1120   1.379       .  A
C1111      C1112   1.385       .  A
C1112      N1118   1.343       .  A
C1113      H1122   1.082       .  S
C1114      C1117   1.379       .  A
N1115      C1116   1.355       .  A
N1115      H1125   1.045       .  S
C1116      C1117   1.395       .  A
C1117      H1123   1.082       .  S
N1118      C1119   1.356       .  A
N1118      H1126   1.045       .  S
C1119      C1120   1.395       .  A
C1120      H1124   1.082       .  S
C1127      C1132   1.385       .  A
C1127      N1133   1.344       .  A
C1128      C1129   1.402       .  A
C1128      H1139   1.082       .  S
C1129      C1138   1.377       .  A
C1129      C1130   1.385       .  A
C1130      N1136   1.344       .  A
C1131      C1132   1.403   1_455  A
C1131      H1140   1.082       .  S
C1132      C1135   1.377       .  A
N1133      C1134   1.355       .  A
N1133      H1143   1.045       .  S
C1134      C1135   1.395       .  A
C1135      H1141   1.082       .  S
N1136      C1137   1.356       .  A
N1136      H1144   1.045       .  S
C1137      C1138   1.395       .  A
C1138      H1142   1.082       .  S
C1145      C1150   1.385       .  A
C1145      N1151   1.342       .  A
C1146      C1147   1.402       .  A
C1146      H1157   1.082       .  S
C1147      C1156   1.378       .  A
C1147      C1148   1.385       .  A
C1148      N1154   1.342       .  A
C1149      C1150   1.402       .  A
C1149      H1158   1.082       .  S
C1150      C1153   1.378       .  A
N1151      C1152   1.356       .  A
N1151      H1161   1.045       .  S
C1152      C1153   1.395       .  A
C1153      H1159   1.082       .  S
N1154      C1155   1.356       .  A
N1154      H1162   1.045       .  S
C1155      C1156   1.395       .  A
C1156      H1160   1.082       .  S
C1163      C1168   1.385       .  A
C1163      N1169   1.342       .  A
C1164      H1175   1.082       .  S
C1165      C1174   1.377       .  A
C1165      C1166   1.385       .  A
C1166      N1172   1.342       .  A
C1167      H1176   1.082       .  S
C1168      C1171   1.377       .  A
N1169      C1170   1.355       .  A
N1169      H1179   1.045       .  S
C1170      C1171   1.394       .  A
C1171      H1177   1.082       .  S
N1172      C1173   1.355       .  A
N1172      H1180   1.045       .  S
C1173      C1174   1.394       .  A
C1174      H1178   1.082       .  S
C1181      C1186   1.385       .  A
C1181      C1182   1.403       .  A
C1181      N1187   1.343       .  A
C1182      H1193   1.082       .  S
C1183      C1192   1.379       .  A
C1183      C1184   1.385       .  A
C1184      C1185   1.403       .  A
C1184      N1190   1.343       .  A
C1185      H1194   1.082       .  S
C1186      C1189   1.378       .  A
N1187      C1188   1.356       .  A
N1187      H1197   1.045       .  S
C1188      C1189   1.395       .  A
C1189      H1195   1.082       .  S
N1190      C1191   1.356       .  A
N1190      H1198   1.045       .  S
C1191      C1192   1.395       .  A
C1192      H1196   1.082       .  S
C1199      C1204   1.385       .  A
C1199      C1200   1.403       .  A
C1199      N1205   1.342       .  A
C1200      C1201   1.402       .  A
C1200      H1211   1.082       .  S
C1201      C1210   1.378       .  A
C1201      C1202   1.385       .  A
C1202      C1203   1.403       .  A
C1202      N1208   1.342       .  A
C1203      C1204   1.401       .  A
C1203      H1212   1.082       .  S
C1204      C1207   1.378       .  A
N1205      C1206   1.355       .  A
N1205      H1215   1.045       .  S
C1206      C1207   1.395       .  A
C1207      H1213   1.082       .  S
N1208      C1209   1.355       .  A
N1208      H1216   1.045       .  S
C1209      C1210   1.395       .  A
C1210      H1214   1.082       .  S
