geometry optimzed in LAMMPS
_audit_creation_date              2020-11-30 
_audit_creation_method            'lammps2cif' 
_symmetry_space_group_name_H-M    'P1' 
_symmetry_Int_Tables_number       1 
_symmetry_cell_setting            triclinic 
loop_ 
_symmetry_equiv_pos_as_xyz 
  x,y,z 
_cell_length_a                    41.50724996 
_cell_length_b                    41.680101617067564 
_cell_length_c                    35.655573061210006 
_cell_angle_alpha                 89.71685112768944 
_cell_angle_beta                  90.30059084025474 
_cell_angle_gamma                 90.13805774430702 
loop_ 
_atom_site_label 
_atom_site_type_symbol 
_atom_site_fract_x 
_atom_site_fract_y 
_atom_site_fract_z 
_atom_site_charge 
C1          C  0.24427190  0.10497571  0.39366353     0.85800
C2          C  0.21675017  0.12908165  0.40119497    -0.54500
C3          C  0.21731023  0.15599472  0.37922163     0.08700
C4          C  0.24584823  0.15581737  0.35206614     0.19600
C5          C  0.24133917  0.09796919  0.35054210    -0.55200
C6          C  0.24241921  0.12520578  0.32827226     0.08800
C7          C  0.27597274  0.12424447  0.39623066    -0.54700
C8          C  0.27661479  0.15171883  0.37556457     0.09400
H9          H  0.19861194  0.12482260  0.42244341     0.13900
H10         H  0.24677561  0.17702883  0.33617288    -0.00400
H11         H  0.23964804  0.07418624  0.33863866     0.14200
H12         H  0.29578787  0.11665952  0.41403720     0.14000
C13         C  0.14606960  0.21453552  0.39972849     0.85800
C14         C  0.16990953  0.24265323  0.40612686    -0.54500
C15         C  0.19640135  0.24228904  0.38366816     0.08700
C16         C  0.19568137  0.21374366  0.35650614     0.19600
C17         C  0.13768408  0.21698928  0.35689254    -0.55200
C18         C  0.16408469  0.21662267  0.33383043     0.08800
C19         C  0.16630040  0.18345438  0.40256076    -0.54700
C20         C  0.19298208  0.18305330  0.38048299     0.09400
H21         H  0.16598225  0.26086559  0.42723221     0.13900
H22         H  0.21615410  0.21327967  0.33941687    -0.00400
H23         H  0.11365155  0.21865519  0.34534054     0.14200
H24         H  0.15993099  0.16380413  0.42117093     0.14000
C25         C  0.35493990  0.20160206  0.39444107     0.85800
C26         C  0.33103378  0.17288356  0.39744645    -0.54500
C27         C  0.30371325  0.17594547  0.37643818     0.08700
C28         C  0.30363893  0.20709985  0.35354860     0.19600
C29         C  0.36165839  0.20322433  0.35155171    -0.55200
C30         C  0.33451505  0.20639156  0.32966616     0.08800
C31         C  0.33423842  0.23144890  0.40322304    -0.54700
C32         C  0.30723915  0.23472892  0.38164673     0.09400
H33         H  0.33564787  0.15101042  0.41266574     0.13900
H34         H  0.28246327  0.20914186  0.33746751    -0.00400
H35         H  0.38540440  0.20027804  0.33966699     0.14200
H36         H  0.34068007  0.24828563  0.42513060     0.14000
C37         C  0.25760619  0.31157640  0.40543997     0.85800
C38         C  0.28516539  0.28685343  0.40906847    -0.54500
C39         C  0.28312717  0.26181668  0.38467309     0.08700
C40         C  0.25326580  0.26438512  0.35931967     0.19600
C41         C  0.25792161  0.32188655  0.36311173    -0.55200
C42         C  0.25565210  0.29674217  0.33847258     0.08800
C43         C  0.22580956  0.29203807  0.40859429    -0.54700
C44         C  0.22376381  0.26642877  0.38496636     0.09400
H45         H  0.30456767  0.28944722  0.42932735     0.13900
H46         H  0.25154454  0.24484012  0.34124539    -0.00400
H47         H  0.25876207  0.34651816  0.35340173     0.14200
H48         H  0.20692242  0.29800586  0.42822969     0.14000
C49         C  0.23917998  0.11075498  0.21911587     0.85800
C50         C  0.26980107  0.13171452  0.21338310    -0.54500
C51         C  0.27276453  0.15697282  0.23743608     0.08700
C52         C  0.24386515  0.15899716  0.26393644     0.19600
C53         C  0.23898730  0.10146446  0.26148761    -0.55200
C54         C  0.24167092  0.12687543  0.28550111     0.08800
C55         C  0.21133775  0.13575849  0.21521062    -0.54700
C56         C  0.21385727  0.16139570  0.23885525     0.09400
H57         H  0.28702016  0.12722158  0.19127388     0.13900
H58         H  0.24575802  0.17880471  0.28158929    -0.00400
H59         H  0.23636126  0.07694727  0.27132289     0.14200
H60         H  0.19195245  0.13451485  0.19506019     0.14000
C61         C  0.14400817  0.22365888  0.22590769     0.85800
C62         C  0.16449416  0.19351394  0.21764543    -0.54500
C63         C  0.19087648  0.18965168  0.24015846     0.08700
C64         C  0.19469816  0.21768069  0.26776355     0.19600
C65         C  0.13683149  0.22224640  0.26872604    -0.55200
C66         C  0.16361881  0.21877460  0.29114110     0.08800
C67         C  0.16871400  0.25172234  0.22224956    -0.54700
C68         C  0.19546192  0.24874446  0.24424453     0.09400
H69         H  0.15835061  0.17688116  0.19543850     0.13900
H70         H  0.21555974  0.21528211  0.28433000    -0.00400
H71         H  0.11276822  0.22456410  0.28000547     0.14200
H72         H  0.16620259  0.27229458  0.20420060     0.14000
C73         C  0.35044467  0.20859158  0.22095644     0.85800
C74         C  0.33030236  0.23990128  0.21878977    -0.54500
C75         C  0.30414701  0.24054953  0.24157551     0.08700
C76         C  0.30142509  0.20978346  0.26512289     0.19600
C77         C  0.35950258  0.20697121  0.26344940    -0.55200
C78         C  0.33342652  0.20714859  0.28706943     0.08800
C79         C  0.32610425  0.18099060  0.21453932    -0.54700
C80         C  0.30007448  0.18131925  0.23776586     0.09400
H81         H  0.33740682  0.26061253  0.20238551     0.13900
H82         H  0.28111956  0.21044845  0.28250142    -0.00400
H83         H  0.38413284  0.20669234  0.27368533     0.14200
H84         H  0.32956142  0.16289193  0.19319010     0.14000
C85         C  0.25574260  0.32067973  0.23142022     0.85800
C86         C  0.22493910  0.30030688  0.22435702    -0.54500
C87         C  0.22271823  0.27300785  0.24575413     0.08700
C88         C  0.25231952  0.26871728  0.27112790     0.19600
C89         C  0.25676240  0.32641555  0.27450193    -0.55200
C90         C  0.25498064  0.29890693  0.29579635     0.08800
C91         C  0.28307825  0.29606317  0.22402713    -0.54700
C92         C  0.28148487  0.26870694  0.24505916     0.09400
H93         H  0.20705422  0.30687313  0.20349526     0.13900
H94         H  0.25099041  0.24729954  0.28661007    -0.00400
H95         H  0.25878795  0.35015648  0.28662173     0.14200
H96         H  0.30078535  0.29873466  0.20217025     0.14000
O97         O  0.47131874  0.18111833  0.02302923    -0.75100
O98         O  0.03327028  0.19078839  0.10170888    -0.75200
O99         O  0.46742128  0.18479728  0.09919414    -0.75200
O100        O  0.03650910  0.18678231  0.02563723    -0.75300
O101        O  0.03060029  0.23980860  0.02027996    -0.75200
O102        O  0.46193840  0.23782918  0.09428494    -0.75200
O103        O  0.02838166  0.24376940  0.09649365    -0.75200
O104        O  0.46593694  0.23407189  0.01831134    -0.75200
Ni105      Ni  0.50187443  0.18444660  0.06347232     1.25400
Ni106      Ni  0.49609553  0.24125607  0.05842192     1.25400
C107        C  0.45870311  0.20575324  0.00714123     0.87000
C108        C  0.04102866  0.21910836  0.11231289     0.87000
C109        C  0.45340217  0.21087612  0.10858965     0.87000
C110        C  0.04426628  0.21368644  0.01055102     0.87200
O111        O  0.22533188  0.48698052  0.01732063    -0.75100
O112        O  0.23044458  0.42914131  0.10165258    -0.75200
O113        O  0.22262000  0.49344740  0.09337958    -0.75200
O114        O  0.23378565  0.42273334  0.02586872    -0.75300
O115        O  0.28692822  0.43078620  0.02655289    -0.75200
O116        O  0.27591480  0.49910459  0.09695402    -0.75200
O117        O  0.28367452  0.43484499  0.10288139    -0.75200
O118        O  0.27837089  0.49521723  0.02086924    -0.75200
Ni119      Ni  0.22616421  0.45782095  0.05942283     1.25400
Ni120      Ni  0.28311410  0.46520354  0.06185806     1.25400
C121        C  0.24705366  0.00150629  0.00439450     0.87000
C122        C  0.25789214  0.42226020  0.11626748     0.87000
C123        C  0.24382648  0.00749492  0.10660051     0.87000
C124        C  0.26215285  0.41547194  0.01470317     0.87200
C125        C  0.28649797  0.36002310  0.18892022    -0.21000
C126        C  0.25748803  0.35165840  0.20711880    -0.07600
C127        C  0.23030568  0.37154726  0.19985145     0.13300
C128        C  0.23133192  0.39414205  0.17029185    -0.21100
C129        C  0.25935808  0.39943728  0.14899972    -0.07600
C130        C  0.28772624  0.38280655  0.15970376     0.13300
C131        C  0.31937981  0.38775222  0.13985783    -0.24400
H132        H  0.30879363  0.34872207  0.19723358     0.14600
H133        H  0.20987420  0.40801415  0.16409861     0.14600
C134        C  0.19987272  0.37032108  0.22276671    -0.24400
H135        H  0.33856345  0.37178043  0.15107983     0.04800
H136        H  0.32777281  0.41283795  0.14360858     0.08000
H137        H  0.31652500  0.38233722  0.10955693     0.08000
H138        H  0.20178222  0.35455871  0.24771680     0.08000
H139        H  0.17947120  0.36207785  0.20496697     0.08000
H140        H  0.19436328  0.39472297  0.23329135     0.04800
C141        C  0.37384729  0.22466854  0.15790770    -0.21000
C142        C  0.37791919  0.20755482  0.19198925    -0.07600
C143        C  0.40576023  0.18782134  0.19542791     0.13300
C144        C  0.43027492  0.19014187  0.16834010    -0.21100
C145        C  0.42705603  0.20981349  0.13646989    -0.07600
C146        C  0.39807002  0.22671022  0.13081784     0.13300
C147        C  0.39186482  0.24601799  0.09558226    -0.24400
H148        H  0.35118371  0.23621297  0.15152844     0.14600
H149        H  0.45191260  0.17586448  0.17177294     0.14600
C150        C  0.41004929  0.16259372  0.22547459    -0.24400
H151        H  0.40886980  0.26654535  0.09401841     0.04800
H152        H  0.36709411  0.25603751  0.09481381     0.08000
H153        H  0.39480839  0.23055835  0.07055503     0.08000
H154        H  0.38756551  0.15691533  0.24060864     0.08000
H155        H  0.42901078  0.17030134  0.24559916     0.08000
H156        H  0.41766844  0.13970542  0.21242251     0.04800
C157        C  0.06757405  0.19838104  0.17028315    -0.21000
C158        C  0.06489163  0.22292824  0.14336116    -0.07600
C159        C  0.08545004  0.24983804  0.14633717     0.13300
C160        C  0.10901592  0.25060674  0.17470422    -0.21100
C161        C  0.11375107  0.22490016  0.20023429    -0.07600
C162        C  0.09110458  0.19907465  0.19887142     0.13300
C163        C  0.09090375  0.17188943  0.22718964    -0.24400
H164        H  0.05103664  0.17825036  0.16886654     0.14600
H165        H  0.12366092  0.27178634  0.17572846     0.14600
C166        C  0.08384709  0.27748249  0.11884304    -0.24400
H167        H  0.07132248  0.15438319  0.22132377     0.04800
H168        H  0.08651527  0.18123834  0.25570165     0.06000
H169        H  0.11365577  0.15817403  0.22690320     0.08000
H170        H  0.06032635  0.28988313  0.12124137     0.08000
H171        H  0.08708877  0.26853064  0.08982148     0.08000
H172        H  0.10294606  0.29563825  0.12413410     0.04800
C173        C  0.26559331  0.03625611  0.16214078    -0.21000
C174        C  0.24025812  0.03243124  0.13631193    -0.07600
C175        C  0.21259351  0.05181745  0.14028547     0.13300
C176        C  0.21217092  0.07586574  0.16793200    -0.21100
C177        C  0.23854644  0.08142143  0.19244396    -0.07600
C178        C  0.26483341  0.05945122  0.19067060     0.13300
C179        C  0.29217954  0.05914665  0.21895917    -0.24400
H180        H  0.28513253  0.51696012  0.16603239     0.14600
H181        H  0.19050611  0.08977531  0.17004860     0.14600
C182        C  0.18353672  0.04795224  0.11509636    -0.24400
H183        H  0.30960648  0.03960523  0.21327823     0.04800
H184        H  0.28280599  0.05475511  0.24753711     0.08000
H185        H  0.30619350  0.08170285  0.21843265     0.08000
H186        H  0.17261770  0.02389409  0.11941280     0.08000
H187        H  0.19069807  0.05093473  0.08531664     0.08000
H188        H  0.16463398  0.06600411  0.12109926     0.04800
C189        C  0.27440457  0.36810300  0.42572131    -0.21000
C190        C  0.26099995  0.33799925  0.43532010    -0.07600
C191        C  0.25312089  0.33264013  0.47384990     0.13300
C192        C  0.25240846  0.35869267  0.49865153    -0.21100
C193        C  0.26371885  0.38898228  0.48801738    -0.07600
C194        C  0.27687103  0.39314751  0.45194354     0.13300
C195        C  0.29359494  0.42390142  0.44107373    -0.24400
H196        H  0.28419824  0.37203595  0.39808599     0.14600
H197        H  0.24554846  0.35476253  0.02645768     0.14600
C198        C  0.24635300  0.30004700  0.49086792    -0.24400
H199        H  0.30159710  0.42365068  0.41140384     0.04800
H200        H  0.31519835  0.42736363  0.45909799     0.08000
H201        H  0.27722762  0.44452436  0.44480206     0.08000
H202        H  0.25115658  0.27975707  0.47193083     0.08000
H203        H  0.22091928  0.29882933  0.50027693     0.08000
H204        H  0.26445752  0.29621566  0.01532557     0.04800
C205        C  0.38555504  0.17837937  0.45107816    -0.21000
C206        C  0.38476098  0.20041322  0.42069018    -0.07600
C207        C  0.40961797  0.22414768  0.41932730     0.13300
C208        C  0.43365442  0.22464781  0.44738943    -0.21100
C209        C  0.43405516  0.20233088  0.47695194    -0.07600
C210        C  0.40972579  0.17878537  0.47861822     0.13300
C211        C  0.41837593  0.14580916  0.99731105    -0.24400
H212        H  0.36640235  0.16153529  0.45568159     0.14600
H213        H  0.45229298  0.24289191  0.44643576     0.14600
C214        C  0.41103516  0.24989605  0.38935782    -0.24400
H215        H  0.44244682  0.13448297  0.99499732     0.04800
H216        H  0.40016418  0.12705235  0.99079468     0.08000
H217        H  0.41421373  0.15371389  0.02658514     0.08000
H218        H  0.38825303  0.26363565  0.38802096     0.08000
H219        H  0.41627124  0.23923978  0.36171563     0.08000
H220        H  0.43060723  0.26748404  0.39493631     0.04800
C221        C  0.08623666  0.21827547  0.41800246    -0.21000
C222        C  0.11884075  0.21470204  0.42899558    -0.07600
C223        C  0.12561408  0.21124613  0.46830350     0.13300
C224        C  0.10025765  0.21086350  0.49412448    -0.21100
C225        C  0.06835427  0.21450881  0.48268280    -0.07600
C226        C  0.06110156  0.21825727  0.44433551     0.13300
C227        C  0.02668273  0.22170415  0.43121651    -0.24400
H228        H  0.07971211  0.22125630  0.38896438     0.14600
H229        H  0.10633557  0.20293525  0.02172006     0.14600
C230        C  0.15894091  0.20782772  0.48528721    -0.24400
H231        H  0.02493577  0.22399615  0.40022761     0.04800
H232        H  0.01587087  0.24345393  0.44378836     0.08000
H233        H  0.01252169  0.20030894  0.43991443     0.08000
H234        H  0.16299761  0.22737535  0.50585035     0.08000
H235        H  0.17903274  0.20896092  0.46528070     0.08000
H236        H  0.16189118  0.18101769  0.99512691     0.04800
C237        C  0.25550910  0.05726627  0.48642698    -0.21000
C238        C  0.24719793  0.02607432  0.47623782    -0.07600
C239        C  0.23631944  0.02030140  0.43917854     0.13300
C240        C  0.23575946  0.04576475  0.41283542    -0.21100
C241        C  0.24419345  0.07743634  0.42289171    -0.07600
C242        C  0.25261683  0.08311053  0.46137665     0.13300
C243        C  0.25869121  0.11582268  0.47834857    -0.24400
H244        H  0.25886296  0.06252429  0.01429838     0.14600
H245        H  0.22781012  0.04058359  0.38461646     0.14600
C246        C  0.22664691  0.48751941  0.42369545    -0.24400
H247        H  0.24335906  0.11870037  0.50354512     0.04800
H248        H  0.25294735  0.13633106  0.45988174     0.08000
H249        H  0.28434053  0.11772596  0.48712176     0.08000
H250        H  0.20176343  0.48865925  0.41219701     0.08000
H251        H  0.22681051  0.46937111  0.44648322     0.08000
H252        H  0.24312226  0.47942832  0.40121999     0.04800
C253        C  0.24354984  0.10612561  0.89231181     0.85800
C254        C  0.21629069  0.13057576  0.89945124    -0.54500
C255        C  0.21754175  0.15758920  0.87769870     0.08700
C256        C  0.24637780  0.15715130  0.85103650     0.19600
C257        C  0.24095759  0.09940990  0.84906876    -0.55200
C258        C  0.24259594  0.12676588  0.82699812     0.08800
C259        C  0.27553469  0.12499044  0.89557934    -0.54700
C260        C  0.27692061  0.15248820  0.87492186     0.09400
H261        H  0.19778637  0.12642835  0.92029186     0.13900
H262        H  0.24764819  0.17839446  0.83523713    -0.00400
H263        H  0.23883155  0.07573275  0.83697447     0.14200
H264        H  0.29506148  0.11703597  0.91361781     0.14000
C265        C  0.14736006  0.21707060  0.89865390     0.85800
C266        C  0.17189335  0.24450437  0.90547808    -0.54500
C267        C  0.19823655  0.24389995  0.88273675     0.08700
C268        C  0.19679998  0.21572539  0.85512952     0.19600
C269        C  0.13883696  0.22017600  0.85591143    -0.55200
C270        C  0.16515039  0.21946535  0.83266173     0.08800
C271        C  0.16684462  0.18551416  0.90070054    -0.54700
C272        C  0.19354587  0.18489310  0.87873265     0.09400
H273        H  0.16850574  0.26242895  0.92704240     0.13900
H274        H  0.21724632  0.21499483  0.83795091    -0.00400
H275        H  0.11470302  0.22202430  0.84462858     0.14200
H276        H  0.16005264  0.16571987  0.91887922     0.14000
C277        C  0.35664329  0.20097045  0.89284027     0.85800
C278        C  0.33198013  0.17283892  0.89681382    -0.54500
C279        C  0.30482810  0.17596865  0.87535799     0.08700
C280        C  0.30517934  0.20709025  0.85235683     0.19600
C281        C  0.36307387  0.20283106  0.84991609    -0.55200
C282        C  0.33585940  0.20622418  0.82825956     0.08800
C283        C  0.33613229  0.23088185  0.90208530    -0.54700
C284        C  0.30919252  0.23463746  0.88047347     0.09400
H285        H  0.33454961  0.15260856  0.91539748     0.13900
H286        H  0.28398525  0.20949943  0.83646710    -0.00400
H287        H  0.38692776  0.20073717  0.83797161     0.14200
H288        H  0.34247118  0.24727906  0.92446998     0.14000
C289        C  0.26067259  0.31190724  0.90500909     0.85800
C290        C  0.28791561  0.28686258  0.90824109    -0.54500
C291        C  0.28545114  0.26202481  0.88364148     0.08700
C292        C  0.25551512  0.26514440  0.85840068     0.19600
C293        C  0.26093091  0.32259784  0.86284690    -0.55200
C294        C  0.25810217  0.29771050  0.83791715     0.08800
C295        C  0.22864107  0.29277849  0.90809652    -0.54700
C296        C  0.22613229  0.26739994  0.88423484     0.09400
H297        H  0.30740381  0.28907893  0.92844934     0.13900
H298        H  0.25353134  0.24569462  0.84012223    -0.00400
H299        H  0.26201116  0.34733240  0.85351409     0.14200
H300        H  0.20984090  0.29893669  0.92775625     0.14000
C301        C  0.23954696  0.11288315  0.71772228     0.85800
C302        C  0.27039833  0.13346062  0.71255352    -0.54500
C303        C  0.27322525  0.15881341  0.73642440     0.08700
C304        C  0.24430711  0.16098940  0.76280603     0.19600
C305        C  0.23868655  0.10351425  0.76006753    -0.55200
C306        C  0.24177735  0.12877057  0.78422758     0.08800
C307        C  0.21176500  0.13799698  0.71387032    -0.54700
C308        C  0.21442406  0.16364438  0.73754555     0.09400
H309        H  0.28799377  0.12844944  0.69099776     0.13900
H310        H  0.24631338  0.18075381  0.78059878    -0.00400
H311        H  0.23509956  0.07912260  0.76985013     0.14200
H312        H  0.19168747  0.13627104  0.69473462     0.14000
C313        C  0.14485334  0.22615307  0.72471027     0.85800
C314        C  0.16507324  0.19582893  0.71669724    -0.54500
C315        C  0.19153009  0.19197123  0.73898384     0.08700
C316        C  0.19556040  0.22004835  0.76643417     0.19600
C317        C  0.13776002  0.22518856  0.76760232    -0.55200
C318        C  0.16456296  0.22147973  0.78994881     0.08800
C319        C  0.16951227  0.25433247  0.72115059    -0.54700
C320        C  0.19645634  0.25111659  0.74293573     0.09400
H321        H  0.15852658  0.17893729  0.69489991     0.13900
H322        H  0.21640324  0.21749300  0.78292291    -0.00400
H323        H  0.11386611  0.22827891  0.77905207     0.14200
H324        H  0.16602882  0.27572535  0.70457558     0.14000
C325        C  0.35087400  0.20992641  0.71934704     0.85800
C326        C  0.33118189  0.24152717  0.71779363    -0.54500
C327        C  0.30517961  0.24226085  0.74074204     0.08700
C328        C  0.30231817  0.21134991  0.76410945     0.19600
C329        C  0.36034907  0.20765997  0.76168985    -0.55200
C330        C  0.33449193  0.20800595  0.78566858     0.08800
C331        C  0.32615821  0.18275479  0.71287415    -0.54700
C332        C  0.30047647  0.18309768  0.73653452     0.09400
H333        H  0.33842004  0.26240639  0.70180354     0.13900
H334        H  0.28210541  0.21210190  0.78165956    -0.00400
H335        H  0.38509144  0.20634586  0.77147442     0.14200
H336        H  0.32921898  0.16482336  0.69125208     0.14000
C337        C  0.25723706  0.32281251  0.73122709     0.85800
C338        C  0.22621157  0.30278303  0.72400560    -0.54500
C339        C  0.22380567  0.27530895  0.74499349     0.08700
C340        C  0.25348023  0.27052857  0.77024822     0.19600
C341        C  0.25854948  0.32810666  0.77438324    -0.55200
C342        C  0.25668021  0.30039628  0.79530449     0.08800
C343        C  0.28438050  0.29805007  0.72341786    -0.54700
C344        C  0.28260893  0.27050874  0.74418637     0.09400
H345        H  0.20830515  0.30964083  0.70327913     0.13900
H346        H  0.25203445  0.24903153  0.78551401    -0.00400
H347        H  0.26101304  0.35169008  0.78681348     0.14200
H348        H  0.30218880  0.30089519  0.70170043     0.14000
O349        O  0.47101194  0.18071571  0.52239879    -0.75100
O350        O  0.03290041  0.19034836  0.60206848    -0.75200
O351        O  0.46771624  0.18404707  0.59829277    -0.75200
O352        O  0.03515973  0.18668567  0.52603167    -0.75300
O353        O  0.02963577  0.23984216  0.52152198    -0.75200
O354        O  0.46304235  0.23717106  0.59367722    -0.75200
O355        O  0.02758027  0.24339322  0.59755567    -0.75200
O356        O  0.46661149  0.23386551  0.51795203    -0.75200
Ni357      Ni  0.50198704  0.18337104  0.56249776     1.25400
Ni358      Ni  0.49706674  0.24029653  0.55773293     1.25400
C359        C  0.45853837  0.20572144  0.50712954     0.87000
C360        C  0.04075506  0.21870980  0.61258906     0.87000
C361        C  0.45397500  0.21026357  0.60763342     0.87000
C362        C  0.04307183  0.21367146  0.51142145     0.87200
O363        O  0.22354991  0.48750795  0.51661678    -0.75100
O364        O  0.23013653  0.43051387  0.60186747    -0.75200
O365        O  0.22169497  0.49447685  0.59279107    -0.75200
O366        O  0.23217513  0.42328106  0.52612262    -0.75300
O367        O  0.28530718  0.43137894  0.52579739    -0.75200
O368        O  0.27493733  0.50071072  0.59534047    -0.75200
O369        O  0.28332463  0.43666491  0.60209847    -0.75200
O370        O  0.27661567  0.49576151  0.51916971    -0.75200
Ni371      Ni  0.22501366  0.45869552  0.55922593     1.25400
Ni372      Ni  0.28193698  0.46636676  0.56057346     1.25400
C373        C  0.24944727  0.00115702  0.50599857     0.87000
C374        C  0.25783992  0.42410349  0.61617750     0.87000
C375        C  0.24629323  0.00792715  0.60738589     0.87000
C376        C  0.26037794  0.41586789  0.51463861     0.87200
C377        C  0.28775627  0.36241981  0.68873623    -0.21000
C378        C  0.25896375  0.35402468  0.70736852    -0.07600
C379        C  0.23178567  0.37409378  0.70085251     0.13300
C380        C  0.23234652  0.39662273  0.67123987    -0.21100
C381        C  0.25999588  0.40177946  0.64929880    -0.07600
C382        C  0.28861970  0.38540937  0.65969717     0.13300
C383        C  0.32015829  0.39092912  0.63979717    -0.24400
H384        H  0.31011229  0.35098074  0.69655048     0.14600
H385        H  0.21080379  0.41048914  0.66545191     0.14600
C386        C  0.20178368  0.37300673  0.72452210    -0.24400
H387        H  0.33965550  0.37534599  0.65103344     0.04800
H388        H  0.32805603  0.41618079  0.64351142     0.08000
H389        H  0.31740010  0.38544126  0.60950647     0.08000
H390        H  0.20397496  0.35703430  0.74925490     0.08000
H391        H  0.18097772  0.36508120  0.70716560     0.08000
H392        H  0.19672687  0.39739298  0.73540010     0.04800
C393        C  0.37521940  0.22704539  0.65709181    -0.21000
C394        C  0.37807505  0.20839229  0.69021740    -0.07600
C395        C  0.40411667  0.18628429  0.69225480     0.13300
C396        C  0.42886281  0.18805231  0.66547143    -0.21100
C397        C  0.42728220  0.20942612  0.63496689    -0.07600
C398        C  0.39942824  0.22825223  0.62998712     0.13300
C399        C  0.39419639  0.24857393  0.59529213    -0.24400
H400        H  0.35340233  0.24019235  0.65113715     0.14600
H401        H  0.44934470  0.17207242  0.66807647     0.14600
C402        C  0.40618077  0.15927920  0.72047389    -0.24400
H403        H  0.41212842  0.26832210  0.59427605     0.04800
H404        H  0.36994044  0.25977442  0.59478760     0.08000
H405        H  0.39636819  0.23349187  0.56983356     0.08000
H406        H  0.38398940  0.15585339  0.73697598     0.08000
H407        H  0.42681809  0.16345375  0.73978299     0.08000
H408        H  0.41009147  0.13631600  0.70550329     0.04800
C409        C  0.06680076  0.20072521  0.67198475    -0.21000
C410        C  0.06554220  0.22291012  0.64240178    -0.07600
C411        C  0.08874431  0.24767705  0.64101440     0.13300
C412        C  0.11268500  0.24935605  0.66891555    -0.21100
C413        C  0.11483090  0.22679092  0.69864553    -0.07600
C414        C  0.09081771  0.20213377  0.69998920     0.13300
C415        C  0.09012339  0.17638139  0.73004840    -0.24400
H416        H  0.04882266  0.18183192  0.67300589     0.14600
H417        H  0.13042609  0.26786791  0.66546103     0.14600
C418        C  0.08978500  0.27141710  0.60887219    -0.24400
H419        H  0.07059515  0.15863539  0.72498051     0.04800
H420        H  0.08529075  0.18698939  0.75781296     0.06000
H421        H  0.11291873  0.16269018  0.73093704     0.08000
H422        H  0.06791241  0.28665649  0.60903716     0.08000
H423        H  0.09135448  0.25841856  0.58181888     0.08000
H424        H  0.11093829  0.28770869  0.61075992     0.04800
C425        C  0.26564318  0.03604472  0.66448673    -0.21000
C426        C  0.24273716  0.03395397  0.63560877    -0.07600
C427        C  0.21762587  0.05671731  0.63429926     0.13300
C428        C  0.21644753  0.08112956  0.66143892    -0.21100
C429        C  0.23958833  0.08380037  0.69062997    -0.07600
C430        C  0.26440364  0.06004675  0.69209135     0.13300
C431        C  0.29012439  0.05911225  0.72236334    -0.24400
H432        H  0.28605393  0.51917447  0.66332126     0.14600
H433        H  0.19731313  0.09824047  0.65852159     0.14600
C434        C  0.19261379  0.05633130  0.60342443    -0.24400
H435        H  0.30773905  0.03955079  0.71760791     0.04800
H436        H  0.27933793  0.05428896  0.75011734     0.08000
H437        H  0.30418984  0.08166330  0.72316998     0.08000
H438        H  0.17786901  0.03415725  0.60538647     0.08000
H439        H  0.20459716  0.05749233  0.57566587     0.08000
H440        H  0.17589082  0.07702046  0.60525620     0.04800
C441        C  0.27830549  0.36793950  0.92606862    -0.21000
C442        C  0.26435322  0.33798642  0.93516282    -0.07600
C443        C  0.25579236  0.33250447  0.97343893     0.13300
C444        C  0.25445571  0.35849791  0.99820960    -0.21100
C445        C  0.26597439  0.38878394  0.98795513    -0.07600
C446        C  0.28025097  0.39292557  0.95242892     0.13300
C447        C  0.29749933  0.42356672  0.94224230    -0.24400
H448        H  0.28870317  0.37180165  0.89870511     0.14600
H449        H  0.24412208  0.35501227  0.52716621     0.14600
C450        C  0.24892335  0.29984055  0.99020171    -0.24400
H451        H  0.30661835  0.42312639  0.91302071     0.04800
H452        H  0.31844375  0.42702266  0.96129532     0.08000
H453        H  0.28106942  0.44427847  0.94496532     0.08000
H454        H  0.25422159  0.27964572  0.97129317     0.08000
H455        H  0.22333053  0.29843648  0.99898051     0.08000
H456        H  0.26231449  0.29637354  0.51561721     0.04800
C457        C  0.39292491  0.17327644  0.94210319    -0.21000
C458        C  0.38733230  0.19958860  0.91777342    -0.07600
C459        C  0.40946637  0.22579784  0.91981144     0.13300
C460        C  0.43258508  0.22669831  0.94887406    -0.21100
C461        C  0.43551900  0.20180393  0.97535014    -0.07600
C462        C  0.41607479  0.17417646  0.97093406     0.13300
C463        C  0.40771942  0.15510936  0.51076191    -0.24400
H464        H  0.37928160  0.15149784  0.93958335     0.14600
H465        H  0.44856771  0.24722111  0.95099748     0.14600
C466        C  0.40961277  0.25300576  0.89155398    -0.24400
H467        H  0.42892371  0.13896125  0.51049527     0.04800
H468        H  0.38590651  0.13969696  0.50894023     0.08000
H469        H  0.40678169  0.16815077  0.53782813     0.08000
H470        H  0.38663501  0.26635517  0.89141111     0.08000
H471        H  0.41445368  0.24364763  0.86312912     0.08000
H472        H  0.42888342  0.27076635  0.89776239     0.04800
C473        C  0.08801566  0.22383171  0.91776803    -0.21000
C474        C  0.12026569  0.21727461  0.92813723    -0.07600
C475        C  0.12678245  0.21067546  0.96696251     0.13300
C476        C  0.10127524  0.20855753  0.99252716    -0.21100
C477        C  0.06959668  0.21476605  0.98168765    -0.07600
C478        C  0.06283073  0.22296884  0.94408410     0.13300
C479        C  0.02884361  0.23025018  0.93159377    -0.24400
H480        H  0.08196988  0.23021980  0.88929814     0.14600
H481        H  0.10551335  0.20798120  0.52380486     0.14600
C482        C  0.16002806  0.20576796  0.98365016    -0.24400
H483        H  0.02745948  0.23562932  0.90109126     0.04800
H484        H  0.01961703  0.25142309  0.94690347     0.08000
H485        H  0.01304283  0.20929462  0.93744827     0.08000
H486        H  0.16377222  0.22299914  0.00694260     0.08000
H487        H  0.18018973  0.20949761  0.96412609     0.08000
H488        H  0.16063349  0.18445966  0.50026731     0.04800
C489        C  0.25208654  0.05800677  0.98534664    -0.21000
C490        C  0.24443498  0.02672404  0.97476872    -0.07600
C491        C  0.23432884  0.02113943  0.93733026     0.13300
C492        C  0.23438941  0.04672346  0.91103755    -0.21100
C493        C  0.24256744  0.07840275  0.92143628    -0.07600
C494        C  0.24983390  0.08393969  0.96025100     0.13300
C495        C  0.25542051  0.11660946  0.97752703    -0.24400
H496        H  0.26301589  0.06182492  0.51513338     0.14600
H497        H  0.22719038  0.04160905  0.88253517     0.14600
C498        C  0.22878208  0.48700269  0.92525594    -0.24400
H499        H  0.23887362  0.11968569  0.00162154     0.04800
H500        H  0.25100637  0.13718938  0.95870096     0.08000
H501        H  0.28061423  0.11821759  0.98801136     0.08000
H502        H  0.20359925  0.48753279  0.91462162     0.08000
H503        H  0.23008853  0.46861717  0.94773216     0.08000
H504        H  0.24491572  0.47959565  0.90212809     0.04800
C505        C  0.24451021  0.60524917  0.39166178     0.85800
C506        C  0.21706530  0.62939642  0.39923548    -0.54500
C507        C  0.21794428  0.65654836  0.37773075     0.08700
C508        C  0.24653910  0.65644311  0.35065586     0.19600
C509        C  0.24172955  0.59861195  0.34844295    -0.55200
C510        C  0.24306027  0.62604565  0.32648720     0.08800
C511        C  0.27629736  0.62437738  0.39465577    -0.54700
C512        C  0.27720351  0.65201543  0.37422955     0.09400
H513        H  0.19880328  0.62503276  0.42030948     0.13900
H514        H  0.24759453  0.67778047  0.33499857    -0.00400
H515        H  0.23994726  0.57493528  0.33627070     0.14200
H516        H  0.29594415  0.61653587  0.41256561     0.14000
C517        C  0.14715280  0.71533957  0.39917072     0.85800
C518        C  0.17098637  0.74343401  0.40539308    -0.54500
C519        C  0.19739446  0.74303244  0.38284098     0.08700
C520        C  0.19656471  0.71450993  0.35562855     0.19600
C521        C  0.13854844  0.71766328  0.35637470    -0.55200
C522        C  0.16486674  0.71727130  0.33313929     0.08800
C523        C  0.16738344  0.68425389  0.40186061    -0.54700
C524        C  0.19390811  0.68380104  0.37952508     0.09400
H525        H  0.16716299  0.76160640  0.42657023     0.13900
H526        H  0.21700910  0.71408038  0.33846518    -0.00400
H527        H  0.11441545  0.71898404  0.34501769     0.14200
H528        H  0.16104980  0.66458323  0.42045128     0.14000
C529        C  0.35578680  0.70144877  0.39379139     0.85800
C530        C  0.33164294  0.67285874  0.39652131    -0.54500
C531        C  0.30451017  0.67607440  0.37523794     0.08700
C532        C  0.30456747  0.70746524  0.35276680     0.19600
C533        C  0.36257365  0.70374992  0.35088299    -0.55200
C534        C  0.33544877  0.70712982  0.32893385     0.08800
C535        C  0.33494300  0.73114079  0.40305026    -0.54700
C536        C  0.30811070  0.73481198  0.38124011     0.09400
H537        H  0.33518339  0.65139172  0.41272593     0.13900
H538        H  0.28340902  0.70969305  0.33672966    -0.00400
H539        H  0.38645340  0.70152183  0.33908357     0.14200
H540        H  0.34115065  0.74760658  0.42542402     0.14000
C541        C  0.25888225  0.81188652  0.40530077     0.85800
C542        C  0.28632694  0.78702432  0.40879718    -0.54500
C543        C  0.28419609  0.76211116  0.38423554     0.08700
C544        C  0.25438035  0.76498431  0.35879695     0.19600
C545        C  0.25924165  0.82248067  0.36310569    -0.55200
C546        C  0.25672872  0.79752215  0.33825230     0.08800
C547        C  0.22699049  0.79247115  0.40818719    -0.54700
C548        C  0.22487658  0.76699617  0.38437705     0.09400
H549        H  0.30568707  0.78939905  0.42914812     0.13900
H550        H  0.25261184  0.74550686  0.34059901    -0.00400
H551        H  0.26004175  0.84719546  0.35367063     0.14200
H552        H  0.20804007  0.79847635  0.42771458     0.14000
C553        C  0.24111870  0.61250891  0.21708066     0.85800
C554        C  0.27180713  0.63342023  0.21227448    -0.54500
C555        C  0.27418663  0.65871659  0.23629708     0.08700
C556        C  0.24512615  0.66039121  0.26251406     0.19600
C557        C  0.24011709  0.60289523  0.25937738    -0.55200
C558        C  0.24275979  0.62808939  0.28372134     0.08800
C559        C  0.21302303  0.63725751  0.21337498    -0.54700
C560        C  0.21533759  0.66280518  0.23719171     0.09400
H561        H  0.28957610  0.62872631  0.19081000     0.13900
H562        H  0.24677396  0.68005987  0.28041268    -0.00400
H563        H  0.23659186  0.57844345  0.26898416     0.14200
H564        H  0.19271523  0.63510057  0.19463603     0.14000
C565        C  0.14453621  0.72382009  0.22527004     0.85800
C566        C  0.16546421  0.69413401  0.21675480    -0.54500
C567        C  0.19191547  0.69060022  0.23907786     0.08700
C568        C  0.19533725  0.71846053  0.26695560     0.19600
C569        C  0.13738740  0.72214638  0.26809384    -0.55200
C570        C  0.16426559  0.71902419  0.29043860     0.08800
C571        C  0.16853627  0.75259247  0.22220166    -0.54700
C572        C  0.19556208  0.74972963  0.24383037     0.09400
H573        H  0.15944312  0.67746531  0.19452983     0.13900
H574        H  0.21625402  0.71623095  0.28342219    -0.00400
H575        H  0.11337152  0.72443932  0.27948728     0.14200
H576        H  0.16469145  0.77409144  0.20597910     0.14000
C577        C  0.35109073  0.71140964  0.22007994     0.85800
C578        C  0.33074232  0.74263078  0.21869919    -0.54500
C579        C  0.30451397  0.74265102  0.24128904     0.08700
C580        C  0.30216703  0.71160400  0.26446936     0.19600
C581        C  0.36026603  0.70906689  0.26250181    -0.55200
C582        C  0.33427020  0.70878549  0.28627997     0.08800
C583        C  0.32678024  0.68386475  0.21314996    -0.54700
C584        C  0.30101932  0.68348693  0.23671231     0.09400
H585        H  0.33780463  0.76406629  0.20372513     0.13900
H586        H  0.28186480  0.71197747  0.28188088    -0.00400
H587        H  0.38484964  0.70935638  0.27275481     0.14200
H588        H  0.33003793  0.66629662  0.19116510     0.14000
C589        C  0.25514079  0.82231597  0.23147535     0.85800
C590        C  0.22438327  0.80181804  0.22456693    -0.54500
C591        C  0.22248699  0.77437400  0.24571752     0.08700
C592        C  0.25233703  0.77008997  0.27078091     0.19600
C593        C  0.25653811  0.82777648  0.27460352    -0.55200
C594        C  0.25518237  0.80009179  0.29565945     0.08800
C595        C  0.28255533  0.79788955  0.22361443    -0.54700
C596        C  0.28136184  0.77044389  0.24459821     0.09400
H597        H  0.20634902  0.80828618  0.20383085     0.13900
H598        H  0.25128902  0.74855638  0.28605071    -0.00400
H599        H  0.25867502  0.85143481  0.28691535     0.14200
H600        H  0.30012266  0.80090270  0.20165105     0.14000
O601        O  0.47189166  0.68072564  0.02197508    -0.75100
O602        O  0.03300923  0.68828929  0.10221830    -0.75200
O603        O  0.46755911  0.68388621  0.09784533    -0.75200
O604        O  0.03612352  0.68508672  0.02622175    -0.75300
O605        O  0.03046138  0.73824941  0.02206953    -0.75200
O606        O  0.46356480  0.73706109  0.09391560    -0.75200
O607        O  0.02767686  0.74134041  0.09800323    -0.75200
O608        O  0.46675531  0.73377950  0.01813287    -0.75200
Ni609      Ni  0.50229843  0.68333748  0.06239797     1.25400
Ni610      Ni  0.49736899  0.74027456  0.05791048     1.25400
C611        C  0.45916385  0.70559791  0.00683070     0.87000
C612        C  0.04074503  0.71658558  0.11300483     0.87000
C613        C  0.45407168  0.71019569  0.10749813     0.87000
C614        C  0.04403568  0.71219786  0.01190319     0.87200
O615        O  0.22169939  0.98720013  0.01640341    -0.75100
O616        O  0.22837566  0.92908357  0.10065585    -0.75200
O617        O  0.21913696  0.99304220  0.09291637    -0.75200
O618        O  0.23143166  0.92291341  0.02472291    -0.75300
O619        O  0.28444652  0.93175070  0.02541310    -0.75200
O620        O  0.27223666  0.99995841  0.09584667    -0.75200
O621        O  0.28145746  0.93601240  0.10184100    -0.75200
O622        O  0.27462381  0.99607319  0.01959767    -0.75200
Ni623      Ni  0.22328535  0.95778088  0.05849126     1.25400
Ni624      Ni  0.28006017  0.96621568  0.06065890     1.25400
C625        C  0.25091816  0.50091967  0.00551730     0.87000
C626        C  0.25596845  0.92301204  0.11543590     0.87000
C627        C  0.24757266  0.50762612  0.10681028     0.87000
C628        C  0.25990857  0.91600732  0.01362410     0.87200
C629        C  0.28560053  0.86224055  0.18936434    -0.21000
C630        C  0.25661950  0.85343140  0.20735211    -0.07600
C631        C  0.22920874  0.87293898  0.19989709     0.13300
C632        C  0.22991950  0.89523407  0.17001998    -0.21100
C633        C  0.25788616  0.90073665  0.14869166    -0.07600
C634        C  0.28658247  0.88493647  0.15999758     0.13300
C635        C  0.31834492  0.89073378  0.14071575    -0.24400
H636        H  0.30801169  0.85127046  0.19791950     0.14600
H637        H  0.20825127  0.90870233  0.16359680     0.14600
C638        C  0.19888693  0.87162947  0.22298763    -0.24400
H639        H  0.33788047  0.87552328  0.15255776     0.04800
H640        H  0.32581717  0.91612706  0.14427431     0.08000
H641        H  0.31613199  0.88494717  0.11044561     0.08000
H642        H  0.20110138  0.85610117  0.24811456     0.08000
H643        H  0.17848863  0.86303435  0.20541502     0.08000
H644        H  0.19318901  0.89607289  0.23324553     0.04800
C645        C  0.37732651  0.73079348  0.15945452    -0.21000
C646        C  0.37872981  0.71033384  0.19124399    -0.07600
C647        C  0.40318179  0.68636751  0.19165283     0.13300
C648        C  0.42729975  0.68687428  0.16391748    -0.21100
C649        C  0.42730069  0.70976841  0.13490655    -0.07600
C650        C  0.40126264  0.73131682  0.13201863     0.13300
C651        C  0.39742243  0.75399380  0.09907063    -0.24400
H652        H  0.35668478  0.74579367  0.15428199     0.14600
H653        H  0.44652716  0.66934011  0.16507865     0.14600
C654        C  0.40374706  0.65919704  0.21983260    -0.24400
H655        H  0.41673366  0.77242439  0.09946498     0.04800
H656        H  0.37410992  0.76700501  0.09972189     0.08000
H657        H  0.39828288  0.74035618  0.07241012     0.08000
H658        H  0.38036326  0.64630617  0.21993386     0.08000
H659        H  0.40946275  0.66807018  0.24824770     0.08000
H660        H  0.42255061  0.64126125  0.21301125     0.04800
C661        C  0.06735161  0.69749171  0.17157182    -0.21000
C662        C  0.06534929  0.72059727  0.14299240    -0.07600
C663        C  0.08775669  0.74609098  0.14264778     0.13300
C664        C  0.11165453  0.74757145  0.17051393    -0.21100
C665        C  0.11458654  0.72414650  0.19919459    -0.07600
C666        C  0.09137154  0.69872817  0.19956636     0.13300
C667        C  0.09153862  0.67205319  0.22853908    -0.24400
H668        H  0.04998936  0.67801811  0.17179315     0.14600
H669        H  0.12864727  0.76682405  0.16786529     0.14600
C670        C  0.08800543  0.77101836  0.11171700    -0.24400
H671        H  0.07224843  0.65413486  0.22307383     0.04800
H672        H  0.08696626  0.68171368  0.25684119     0.06000
H673        H  0.11454780  0.65872303  0.22843448     0.08000
H674        H  0.06571419  0.78561093  0.11276028     0.08000
H675        H  0.08988156  0.75909947  0.08401778     0.08000
H676        H  0.10867661  0.78784405  0.11432615     0.04800
C677        C  0.26661567  0.53522010  0.16430275    -0.21000
C678        C  0.24415904  0.53367691  0.13490374    -0.07600
C679        C  0.22007338  0.55739321  0.13246363     0.13300
C680        C  0.21901656  0.58184321  0.15952355    -0.21100
C681        C  0.24139207  0.58370337  0.18962975    -0.07600
C682        C  0.26578726  0.55955137  0.19151986     0.13300
C683        C  0.29175709  0.55879674  0.22150385    -0.24400
H684        H  0.28617755  0.02038546  0.16042457     0.14600
H685        H  0.20085617  0.59983267  0.15553656     0.14600
C686        C  0.19627552  0.55805856  0.10031381    -0.24400
H687        H  0.30912446  0.53898167  0.21693671     0.04800
H688        H  0.28126732  0.55455649  0.24952367     0.08000
H689        H  0.30604238  0.58123320  0.22153434     0.08000
H690        H  0.18060835  0.53647681  0.10137523     0.08000
H691        H  0.20936551  0.55877529  0.07322503     0.08000
H692        H  0.18035025  0.57940799  0.10135208     0.04800
C693        C  0.27589197  0.86821196  0.42616204    -0.21000
C694        C  0.26222485  0.83813676  0.43537621    -0.07600
C695        C  0.25370416  0.83270769  0.47368545     0.13300
C696        C  0.25256205  0.85870404  0.49851205    -0.21100
C697        C  0.26406412  0.88900549  0.48823505    -0.07600
C698        C  0.27785516  0.89324428  0.45247803     0.13300
C699        C  0.29454380  0.92411389  0.44197295    -0.24400
H700        H  0.28609992  0.87215836  0.39872377     0.14600
H701        H  0.24691344  0.85447606  0.02651057     0.14600
C702        C  0.24665771  0.80007888  0.49044592    -0.24400
H703        H  0.30327480  0.92379427  0.41258749     0.04800
H704        H  0.31568105  0.92787698  0.46065248     0.08000
H705        H  0.27783835  0.94458661  0.44498004     0.08000
H706        H  0.25203317  0.77984387  0.47162921     0.08000
H707        H  0.22101011  0.79875509  0.49902788     0.08000
H708        H  0.26719445  0.79623596  0.01400278     0.04800
C709        C  0.38895753  0.67557933  0.44735071    -0.21000
C710        C  0.38586134  0.70008345  0.41986888    -0.07600
C711        C  0.40916544  0.72534504  0.42071048     0.13300
C712        C  0.43257539  0.72610630  0.44950324    -0.21100
C713        C  0.43426540  0.70226823  0.47738504    -0.07600
C714        C  0.41232640  0.67643108  0.47586963     0.13300
C715        C  0.41569230  0.64785170  0.00157994    -0.24400
H716        H  0.37268441  0.65567221  0.44851242     0.14600
H717        H  0.44983461  0.74565422  0.45028241     0.14600
C718        C  0.40996835  0.75199661  0.39178903    -0.24400
H719        H  0.43896841  0.63496704  0.99950039     0.04800
H720        H  0.39627562  0.62993729  0.99673791     0.08000
H721        H  0.41258379  0.65736819  0.03037506     0.08000
H722        H  0.38694782  0.76530380  0.39081699     0.08000
H723        H  0.41539813  0.74216947  0.36375552     0.08000
H724        H  0.42913389  0.76985206  0.39806417     0.04800
C725        C  0.08760429  0.72028356  0.41808807    -0.21000
C726        C  0.12012695  0.71554263  0.42868618    -0.07600
C727        C  0.12703204  0.71111554  0.46783728     0.13300
C728        C  0.10173055  0.70975964  0.49372480    -0.21100
C729        C  0.06983005  0.71424057  0.48264552    -0.07600
C730        C  0.06258900  0.71997975  0.44458720     0.13300
C731        C  0.02829758  0.72538575  0.43190704    -0.24400
H732        H  0.08113641  0.72473693  0.38926817     0.14600
H733        H  0.10670149  0.71003922  0.02456311     0.14600
C734        C  0.16047164  0.70791170  0.48458059    -0.24400
H735        H  0.02656902  0.72913868  0.40110433     0.04800
H736        H  0.01838600  0.74696440  0.44581421     0.08000
H737        H  0.01329765  0.70422144  0.43936897     0.08000
H738        H  0.16417025  0.72696568  0.50585655     0.08000
H739        H  0.18047048  0.71009119  0.46454979     0.08000
H740        H  0.16233229  0.68832111  0.00218289     0.04800
C741        C  0.25394070  0.55759558  0.48476358    -0.21000
C742        C  0.24649970  0.52625117  0.47434201    -0.07600
C743        C  0.23672272  0.52031350  0.43689131     0.13300
C744        C  0.23647566  0.54577636  0.41047608    -0.21100
C745        C  0.24412941  0.57759524  0.42078981    -0.07600
C746        C  0.25152294  0.58337077  0.45953717     0.13300
C747        C  0.25714900  0.61612141  0.47662950    -0.24400
H748        H  0.26210785  0.56204015  0.01531188     0.14600
H749        H  0.22945126  0.54045911  0.38196635     0.14600
C750        C  0.22543425  0.98765844  0.42627902    -0.24400
H751        H  0.24085766  0.61919280  0.50095941     0.04800
H752        H  0.25243385  0.63666034  0.45784514     0.08000
H753        H  0.28244637  0.61785497  0.48674583     0.08000
H754        H  0.20012228  0.98907102  0.41619272     0.08000
H755        H  0.22647679  0.96929040  0.44879253     0.08000
H756        H  0.24089615  0.97959142  0.40283623     0.04800
C757        C  0.24403863  0.60510017  0.89366368     0.85800
C758        C  0.21653830  0.62928011  0.90106173    -0.54500
C759        C  0.21744758  0.65634740  0.87933396     0.08700
C760        C  0.24606920  0.65607279  0.85229217     0.19600
C761        C  0.24127792  0.59825546  0.85048392    -0.55200
C762        C  0.24255065  0.62554440  0.82832686     0.08800
C763        C  0.27577134  0.62427353  0.89660724    -0.54700
C764        C  0.27669214  0.65178199  0.87602436     0.09400
H765        H  0.19826472  0.62502815  0.92215302     0.13900
H766        H  0.24717739  0.67728386  0.83640706    -0.00400
H767        H  0.23946206  0.57453975  0.83843722     0.14200
H768        H  0.29548193  0.61646833  0.91444730     0.14000
C769        C  0.14698320  0.71566278  0.90027244     0.85800
C770        C  0.17102748  0.74373395  0.90627823    -0.54500
C771        C  0.19749656  0.74297454  0.88371780     0.08700
C772        C  0.19638037  0.71431451  0.85675700     0.19600
C773        C  0.13844371  0.71804063  0.85747001    -0.55200
C774        C  0.16473624  0.71738917  0.83427195     0.08800
C775        C  0.16707240  0.68452004  0.90326567    -0.54700
C776        C  0.19352414  0.68373614  0.88087366     0.09400
H777        H  0.16729621  0.76213904  0.92720303     0.13900
H778        H  0.21674164  0.71362463  0.83954658    -0.00400
H779        H  0.11441590  0.72016430  0.84602614     0.14200
H780        H  0.16070230  0.66504164  0.92212299     0.14000
C781        C  0.35575034  0.70082322  0.89440505     0.85800
C782        C  0.33113015  0.67273098  0.89844086    -0.54500
C783        C  0.30418108  0.67561313  0.87668562     0.08700
C784        C  0.30455500  0.70653528  0.85337882     0.19600
C785        C  0.36247354  0.70215632  0.85158429    -0.55200
C786        C  0.33543848  0.70540411  0.82965537     0.08800
C787        C  0.33523017  0.73084321  0.90305041    -0.54700
C788        C  0.30837952  0.73433589  0.88122852     0.09400
H789        H  0.33367943  0.65247978  0.91691871     0.13900
H790        H  0.28343277  0.70872200  0.83724038    -0.00400
H791        H  0.38637119  0.69960398  0.83989834     0.14200
H792        H  0.34147847  0.74747887  0.92522857     0.14000
C793        C  0.25957311  0.81177529  0.90446699     0.85800
C794        C  0.28697567  0.78689456  0.90806196    -0.54500
C795        C  0.28453578  0.76165351  0.88400987     0.08700
C796        C  0.25457549  0.76429897  0.85879682     0.19600
C797        C  0.25979736  0.82180658  0.86206054    -0.55200
C798        C  0.25720367  0.79652039  0.83766503     0.08800
C799        C  0.22765286  0.79249126  0.90805997    -0.54700
C800        C  0.22518638  0.76679851  0.88462763     0.09400
H801        H  0.30654463  0.78951621  0.92809575     0.13900
H802        H  0.25263676  0.74463202  0.84086940    -0.00400
H803        H  0.26087256  0.84633471  0.85206593     0.14200
H804        H  0.20900635  0.79866892  0.92792377     0.14000
C805        C  0.23946389  0.61131273  0.71899354     0.85800
C806        C  0.27025731  0.63191139  0.71355576    -0.54500
C807        C  0.27333715  0.65711121  0.73751846     0.08700
C808        C  0.24437701  0.65942947  0.76398235     0.19600
C809        C  0.23892675  0.60193483  0.76139088    -0.55200
C810        C  0.24189324  0.62729101  0.78551248     0.08800
C811        C  0.21163626  0.63637226  0.71530755    -0.54700
C812        C  0.21430051  0.66197498  0.73893534     0.09400
H813        H  0.28774360  0.62696052  0.69185601     0.13900
H814        H  0.24640733  0.67920923  0.78172375    -0.00400
H815        H  0.23565861  0.57750166  0.77119871     0.14200
H816        H  0.19153083  0.63476692  0.69622331     0.14000
C817        C  0.14425576  0.72425970  0.72649824     0.85800
C818        C  0.16446941  0.69387200  0.71836996    -0.54500
C819        C  0.19105863  0.69001923  0.74062144     0.08700
C820        C  0.19512574  0.71806337  0.76806063     0.19600
C821        C  0.13728027  0.72314436  0.76935281    -0.55200
C822        C  0.16413490  0.71948973  0.79160250     0.08800
C823        C  0.16918763  0.75214437  0.72258766    -0.54700
C824        C  0.19609255  0.74895330  0.74433019     0.09400
H825        H  0.15800979  0.67713015  0.69639163     0.13900
H826        H  0.21602544  0.71556563  0.78451701    -0.00400
H827        H  0.11332221  0.72582615  0.78079810     0.14200
H828        H  0.16663319  0.77283257  0.70472848     0.14000
C829        C  0.35176288  0.70759813  0.72113174     0.85800
C830        C  0.33183395  0.73905022  0.71865722    -0.54500
C831        C  0.30557528  0.73995195  0.74135085     0.08700
C832        C  0.30262656  0.70935875  0.76507598     0.19600
C833        C  0.36065196  0.70602826  0.76365373    -0.55200
C834        C  0.33451121  0.70642299  0.78711560     0.08800
C835        C  0.32717041  0.68020222  0.71473742    -0.54700
C836        C  0.30105281  0.68091558  0.73788006     0.09400
H837        H  0.33894808  0.75944055  0.70169015     0.13900
H838        H  0.28231061  0.71023176  0.78235665    -0.00400
H839        H  0.38520956  0.70568142  0.77408595     0.14200
H840        H  0.33048782  0.66204141  0.69343357     0.14000
C841        C  0.25718570  0.82000749  0.73048670     0.85800
C842        C  0.22618838  0.79989757  0.72373063    -0.54500
C843        C  0.22379832  0.77273860  0.74529653     0.08700
C844        C  0.25352994  0.76824950  0.77049613     0.19600
C845        C  0.25847039  0.82589172  0.77353901    -0.55200
C846        C  0.25650177  0.79848910  0.79498991     0.08800
C847        C  0.28435447  0.79518782  0.72309803    -0.54700
C848        C  0.28270281  0.76799198  0.74434911     0.09400
H849        H  0.20816955  0.80668370  0.70310992     0.13900
H850        H  0.25206500  0.74692051  0.78614410    -0.00400
H851        H  0.26072744  0.84966531  0.78551725     0.14200
H852        H  0.30210008  0.79752341  0.70126897     0.14000
O853        O  0.47086920  0.68064376  0.52346311    -0.75100
O854        O  0.03312569  0.69098459  0.60257761    -0.75200
O855        O  0.46856361  0.68394386  0.59964390    -0.75200
O856        O  0.03658052  0.68670195  0.52654607    -0.75300
O857        O  0.03113918  0.73979187  0.52116036    -0.75200
O858        O  0.46380596  0.73709197  0.59507344    -0.75200
O859        O  0.02823403  0.74397430  0.59733283    -0.75200
O860        O  0.46652551  0.73375112  0.51908105    -0.75200
Ni861      Ni  0.50229591  0.68311145  0.56311558     1.25400
Ni862      Ni  0.49748431  0.74004989  0.55843653     1.25400
C863        C  0.45839509  0.70563577  0.50815673     0.87000
C864        C  0.04087174  0.71931749  0.61318496     0.87000
C865        C  0.45506378  0.71018167  0.60937315     0.87000
C866        C  0.04460478  0.71352647  0.51153572     0.87200
O867        O  0.22385043  0.98731006  0.51799345    -0.75100
O868        O  0.22953853  0.92925685  0.60222060    -0.75200
O869        O  0.22138221  0.99359069  0.59412552    -0.75200
O870        O  0.23223593  0.92301276  0.52644594    -0.75300
O871        O  0.28538394  0.93102736  0.52674045    -0.75200
O872        O  0.27464509  0.99952752  0.59729543    -0.75200
O873        O  0.28276143  0.93525168  0.60297002    -0.75200
O874        O  0.27692121  0.99543872  0.52120562    -0.75200
Ni875      Ni  0.22486457  0.95805105  0.56008933     1.25400
Ni876      Ni  0.28181239  0.96554344  0.56209597     1.25400
C877        C  0.24901448  0.50132601  0.50417037     0.87000
C878        C  0.25717228  0.92237807  0.61637939     0.87000
C879        C  0.24663008  0.50885184  0.60587804     0.87000
C880        C  0.26051470  0.91570325  0.51508228     0.87200
C881        C  0.28698055  0.85849664  0.68601680    -0.21000
C882        C  0.25868534  0.85090895  0.70609020    -0.07600
C883        C  0.23170689  0.87150037  0.70058721     0.13300
C884        C  0.23212763  0.89448359  0.67143027    -0.21100
C885        C  0.25926673  0.89914320  0.64853342    -0.07600
C886        C  0.28745086  0.88133327  0.65688964     0.13300
C887        C  0.31797722  0.88492205  0.63441197    -0.24400
H888        H  0.30934966  0.84666414  0.69271964     0.14600
H889        H  0.21087640  0.90905979  0.66669385     0.14600
C890        C  0.20196582  0.87044270  0.72472304    -0.24400
H891        H  0.33690553  0.86777315  0.64363363     0.04800
H892        H  0.32797708  0.90945100  0.63784805     0.08000
H893        H  0.31289573  0.88015230  0.60433554     0.08000
H894        H  0.20408235  0.85401450  0.74903084     0.08000
H895        H  0.18086414  0.86311685  0.70748464     0.08000
H896        H  0.19738944  0.89470541  0.73624123     0.04800
C897        C  0.37479588  0.72232165  0.65755392    -0.21000
C898        C  0.37932809  0.70635525  0.69229406    -0.07600
C899        C  0.40789494  0.68780481  0.69670409     0.13300
C900        C  0.43262849  0.69058994  0.66994864    -0.21100
C901        C  0.42882635  0.70921062  0.63732833    -0.07600
C902        C  0.39912435  0.72447974  0.63057534     0.13300
C903        C  0.39236781  0.74200731  0.59424368    -0.24400
H904        H  0.35174094  0.73294760  0.65077341     0.14600
H905        H  0.45479433  0.67726589  0.67405559     0.14600
C906        C  0.41256057  0.66295888  0.72710064    -0.24400
H907        H  0.40861085  0.76305654  0.59155036     0.04800
H908        H  0.36721257  0.75097541  0.59276825     0.08000
H909        H  0.39608319  0.72561733  0.57018493     0.08000
H910        H  0.38986372  0.65627284  0.74126695     0.08000
H911        H  0.43053374  0.67163911  0.74789180     0.08000
H912        H  0.42165894  0.64039528  0.71457032     0.04800
C913        C  0.06706420  0.69929246  0.67182648    -0.21000
C914        C  0.06483263  0.72325474  0.64414477    -0.07600
C915        C  0.08606779  0.74970518  0.64612877     0.13300
C916        C  0.10977280  0.75061904  0.67434792    -0.21100
C917        C  0.11389037  0.72555945  0.70088987    -0.07600
C918        C  0.09067377  0.70019376  0.70037221     0.13300
C919        C  0.08999215  0.67369589  0.72953249    -0.24400
H920        H  0.05008613  0.67950042  0.67106479     0.14600
H921        H  0.12517063  0.77127265  0.67424426     0.14600
C922        C  0.08510528  0.77659936  0.61759271    -0.24400
H923        H  0.07043245  0.65611496  0.72387728     0.04800
H924        H  0.08522568  0.68373952  0.75762949     0.06000
H925        H  0.11275049  0.65996791  0.73009488     0.08000
H926        H  0.06194414  0.78970140  0.61960792     0.08000
H927        H  0.08797486  0.76674457  0.58892035     0.08000
H928        H  0.10470455  0.79437658  0.62210070     0.04800
C929        C  0.26645766  0.53632560  0.66318111    -0.21000
C930        C  0.24309079  0.53429998  0.63477242    -0.07600
C931        C  0.21701523  0.55596601  0.63522230     0.13300
C932        C  0.21549420  0.57943632  0.66338551    -0.21100
C933        C  0.23937312  0.58241833  0.69169824    -0.07600
C934        C  0.26483764  0.55936923  0.69184287     0.13300
C935        C  0.29066460  0.55806994  0.72197104    -0.24400
H936        H  0.28466951  0.01828856  0.66572022     0.14600
H937        H  0.19534725  0.59546707  0.66205088     0.14600
C938        C  0.19122373  0.55546906  0.60521801    -0.24400
H939        H  0.30845450  0.53879281  0.71658203     0.04800
H940        H  0.27990399  0.55258707  0.74959315     0.08000
H941        H  0.30452786  0.58070819  0.72347538     0.08000
H942        H  0.17732272  0.53274568  0.60684791     0.08000
H943        H  0.20241978  0.55784679  0.57711098     0.08000
H944        H  0.17380993  0.57545120  0.60839960     0.04800
C945        C  0.27499026  0.86889889  0.92441665    -0.21000
C946        C  0.26307293  0.83823779  0.93428536    -0.07600
C947        C  0.25598636  0.83254437  0.97296583     0.13300
C948        C  0.25458931  0.85851710  0.99782629    -0.21100
C949        C  0.26413454  0.88931464  0.98690275    -0.07600
C950        C  0.27660433  0.89405913  0.95058725     0.13300
C951        C  0.29161390  0.92559329  0.93940291    -0.24400
H952        H  0.28413813  0.87331052  0.89658865     0.14600
H953        H  0.24380818  0.85495562  0.52682309     0.14600
C954        C  0.25038345  0.79972691  0.98999165    -0.24400
H955        H  0.29937949  0.92566623  0.90964200     0.04800
H956        H  0.31314095  0.93024687  0.95717930     0.08000
H957        H  0.27419008  0.94531793  0.94324479     0.08000
H958        H  0.25476242  0.77959022  0.97071464     0.08000
H959        H  0.22529788  0.79799886  0.00048620     0.08000
H960        H  0.26203626  0.79643213  0.51569342     0.04800
C961        C  0.39113954  0.67401600  0.94503628    -0.21000
C962        C  0.38627049  0.69962853  0.91949546    -0.07600
C963        C  0.40897836  0.72541275  0.92040550     0.13300
C964        C  0.43268121  0.72623589  0.94879311    -0.21100
C965        C  0.43525842  0.70190083  0.97595519    -0.07600
C966        C  0.41456335  0.67505719  0.97343086     0.13300
C967        C  0.41201805  0.65030502  0.50541642    -0.24400
H968        H  0.37665159  0.65273708  0.94410579     0.14600
H969        H  0.44936675  0.74626164  0.94991211     0.14600
C970        C  0.40903797  0.75235367  0.89179430    -0.24400
H971        H  0.43464280  0.63624070  0.50419291     0.04800
H972        H  0.39178372  0.63316336  0.50136390     0.08000
H973        H  0.40931980  0.66107047  0.53366088     0.08000
H974        H  0.38618346  0.76591847  0.89197182     0.08000
H975        H  0.41343422  0.74276873  0.86338736     0.08000
H976        H  0.42855439  0.76998414  0.89744287     0.04800
C977        C  0.08702315  0.71713567  0.91851498    -0.21000
C978        C  0.11978155  0.71563667  0.92959655    -0.07600
C979        C  0.12667790  0.71306835  0.96896720     0.13300
C980        C  0.10134677  0.71201033  0.99480936    -0.21100
C981        C  0.06930909  0.71346171  0.98323154    -0.07600
C982        C  0.06189046  0.71600205  0.94481073     0.13300
C983        C  0.02731563  0.71694197  0.93159884    -0.24400
H984        H  0.08033091  0.71889369  0.88940603     0.14600
H985        H  0.10707124  0.70590614  0.52323472     0.14600
C986        C  0.16010485  0.71103962  0.98597226    -0.24400
H987        H  0.02547316  0.71861516  0.90056675     0.04800
H988        H  0.01499491  0.73809475  0.94368108     0.08000
H989        H  0.01462016  0.69478653  0.94076074     0.08000
H990        H  0.16378353  0.73145929  0.00544090     0.08000
H991        H  0.18011128  0.71156976  0.96582511     0.08000
H992        H  0.16271521  0.68419171  0.49866426     0.04800
C993        C  0.25523757  0.55735841  0.98642288    -0.21000
C994        C  0.24846592  0.52590789  0.97582420    -0.07600
C995        C  0.23824718  0.51995944  0.93854747     0.13300
C996        C  0.23695343  0.54553968  0.91238500    -0.21100
C997        C  0.24399965  0.57745853  0.92279720    -0.07600
C998        C  0.25173558  0.58321498  0.96146127     0.13300
C999        C  0.25660777  0.61602471  0.97867835    -0.24400
H1000       H  0.26066400  0.56227920  0.51369952     0.14600
H1001       H  0.22965617  0.54017812  0.88398641     0.14600
C1002       C  0.22355330  0.98861119  0.92397307    -0.24400
H1003       H  0.24035048  0.61859096  0.00312380     0.04800
H1004       H  0.25133013  0.63647617  0.95996011     0.08000
H1005       H  0.28189915  0.61836962  0.98864198     0.08000
H1006       H  0.19855962  0.99025186  0.91288976     0.08000
H1007       H  0.22370096  0.97027935  0.94655348     0.08000
H1008       H  0.23960684  0.98042390  0.90113539     0.04800
C1009       C  0.74421426  0.10455218  0.39162368     0.85800
C1010       C  0.71677221  0.12868551  0.39926901    -0.54500
C1011       C  0.71762814  0.15587556  0.37782005     0.08700
C1012       C  0.74623695  0.15584228  0.35075853     0.19600
C1013       C  0.74145511  0.09804165  0.34832703    -0.55200
C1014       C  0.74277112  0.12554382  0.32643887     0.08800
C1015       C  0.77599099  0.12368298  0.39471654    -0.54700
C1016       C  0.77689274  0.15133201  0.37435284     0.09400
H1017       H  0.69853097  0.12428698  0.42035766     0.13900
H1018       H  0.74727261  0.17721808  0.33517570    -0.00400
H1019       H  0.73964683  0.07439168  0.33608165     0.14200
H1020       H  0.79563744  0.11591727  0.41268216     0.14000
C1021       C  0.64705933  0.21474548  0.39983753     0.85800
C1022       C  0.67108339  0.24266997  0.40641917    -0.54500
C1023       C  0.69743075  0.24237436  0.38372502     0.08700
C1024       C  0.69641437  0.21406464  0.35620935     0.19600
C1025       C  0.63845984  0.21762488  0.35709042    -0.55200
C1026       C  0.66472904  0.21729826  0.33382858     0.08800
C1027       C  0.66711183  0.18354230  0.40210812    -0.54700
C1028       C  0.69362433  0.18316223  0.37976472     0.09400
H1029       H  0.66737393  0.26071498  0.42777508     0.13900
H1030       H  0.71678364  0.21359440  0.33894169    -0.00400
H1031       H  0.61437962  0.21943075  0.34571558     0.14200
H1032       H  0.66069838  0.16375440  0.42049245     0.14000
C1033       C  0.85526661  0.20083321  0.39420368     0.85800
C1034       C  0.83134332  0.17212120  0.39675352    -0.54500
C1035       C  0.80410743  0.17542558  0.37562334     0.08700
C1036       C  0.80422302  0.20677279  0.35303212     0.19600
C1037       C  0.86223048  0.20276274  0.35133495    -0.55200
C1038       C  0.83517273  0.20621631  0.32930634     0.08800
C1039       C  0.83464973  0.23063588  0.40310594    -0.54700
C1040       C  0.80785576  0.23419823  0.38133471     0.09400
H1041       H  0.83598360  0.15014400  0.41183722     0.13900
H1042       H  0.78310174  0.20906362  0.33692454    -0.00400
H1043       H  0.88602158  0.19987852  0.33955434     0.14200
H1044       H  0.84106275  0.24729539  0.42520726     0.14000
C1045       C  0.75907932  0.31127867  0.40557140     0.85800
C1046       C  0.78650660  0.28645128  0.40875188    -0.54500
C1047       C  0.78411373  0.26152576  0.38430315     0.08700
C1048       C  0.75418883  0.26440090  0.35913911     0.19600
C1049       C  0.75918491  0.32189222  0.36339506    -0.55200
C1050       C  0.75657145  0.29691353  0.33858574     0.08800
C1051       C  0.72718818  0.29187335  0.40884685    -0.54700
C1052       C  0.72486946  0.26641527  0.38501795     0.09400
H1053       H  0.80601814  0.28884182  0.42890015     0.13900
H1054       H  0.75234054  0.24493916  0.34095046    -0.00400
H1055       H  0.76012657  0.34659485  0.35393931     0.14200
H1056       H  0.70847812  0.29778515  0.42873471     0.14000
C1057       C  0.74010221  0.11257697  0.21684437     0.85800
C1058       C  0.77063638  0.13364578  0.21164945    -0.54500
C1059       C  0.77343828  0.15859373  0.23603965     0.08700
C1060       C  0.74445061  0.16020781  0.26255909     0.19600
C1061       C  0.73962548  0.10274484  0.25910293    -0.55200
C1062       C  0.74226503  0.12780720  0.28362041     0.08800
C1063       C  0.71199372  0.13738359  0.21344719    -0.54700
C1064       C  0.71436642  0.16275326  0.23752983     0.09400
H1065       H  0.78805412  0.12931976  0.18969650     0.13900
H1066       H  0.74626823  0.17977486  0.28059076    -0.00400
H1067       H  0.73666764  0.07815111  0.26852159     0.14200
H1068       H  0.69206285  0.13584443  0.19408078     0.14000
C1069       C  0.64397373  0.22480763  0.22619512     0.85800
C1070       C  0.66427449  0.19456635  0.21765188    -0.54500
C1071       C  0.69097816  0.19068221  0.23966452     0.08700
C1072       C  0.69495776  0.21849046  0.26748287     0.19600
C1073       C  0.63710136  0.22334472  0.26906837    -0.55200
C1074       C  0.66402305  0.21955661  0.29117500     0.08800
C1075       C  0.66856081  0.25303029  0.22285419    -0.54700
C1076       C  0.69562687  0.24968382  0.24427507     0.09400
H1077       H  0.65769079  0.17785312  0.19568284     0.13900
H1078       H  0.71588497  0.21598246  0.28387364    -0.00400
H1079       H  0.61324025  0.22620118  0.28068992     0.14200
H1080       H  0.66509620  0.27456654  0.20661036     0.14000
C1081       C  0.85139468  0.21036235  0.22070339     0.85800
C1082       C  0.83121996  0.24170613  0.21941647    -0.54500
C1083       C  0.80485541  0.24177650  0.24180106     0.08700
C1084       C  0.80218329  0.21071391  0.26474690     0.19600
C1085       C  0.86029074  0.20783264  0.26315171    -0.55200
C1086       C  0.83416352  0.20761208  0.28670374     0.08800
C1087       C  0.82687911  0.18294675  0.21349676    -0.54700
C1088       C  0.80083657  0.18281875  0.23679532     0.09400
H1089       H  0.83854311  0.26317579  0.20467212     0.13900
H1090       H  0.78183193  0.21115630  0.28205344    -0.00400
H1091       H  0.88478292  0.20821449  0.27364995     0.14200
H1092       H  0.83018326  0.16536152  0.19154052     0.14000
C1093       C  0.75596354  0.32155010  0.23185256     0.85800
C1094       C  0.72513281  0.30125314  0.22472751    -0.54500
C1095       C  0.72293812  0.27387231  0.24593073     0.08700
C1096       C  0.75265450  0.26938087  0.27114125     0.19600
C1097       C  0.75714887  0.32704646  0.27495650    -0.55200
C1098       C  0.75545709  0.29939718  0.29600816     0.08800
C1099       C  0.78325924  0.29701269  0.22416040    -0.54700
C1100       C  0.78182599  0.26961544  0.24512461     0.09400
H1101       H  0.70721616  0.30787908  0.20392316     0.13900
H1102       H  0.75141039  0.24783116  0.28638447    -0.00400
H1103       H  0.75931555  0.35070615  0.28725769     0.14200
H1104       H  0.80088350  0.29986470  0.20223767     0.14000
O1105       O  0.97166382  0.17998940  0.02240060    -0.75100
O1106       O  0.53207182  0.19160483  0.10344328    -0.75200
O1107       O  0.96845548  0.18417229  0.09848679    -0.75200
O1108       O  0.53604557  0.18779648  0.02759096    -0.75300
O1109       O  0.53049366  0.24091441  0.02270151    -0.75200
O1110       O  0.96366147  0.23719580  0.09354451    -0.75200
O1111       O  0.52678262  0.24462655  0.09871653    -0.75200
O1112       O  0.96606937  0.23292137  0.01762510    -0.75200
Ni1113     Ni  0.00267348  0.18353722  0.06221813     1.25400
Ni1114     Ni  0.99701738  0.24029884  0.05687972     1.25400
C1115       C  0.95868165  0.20453566  0.00679710     0.87000
C1116       C  0.53966678  0.21993160  0.11418283     0.87000
C1117       C  0.95475007  0.21043684  0.10795364     0.87000
C1118       C  0.54420333  0.21475920  0.01307015     0.87200
O1119       O  0.72432542  0.48639051  0.01688679    -0.75100
O1120       O  0.72995351  0.42853848  0.10135292    -0.75200
O1121       O  0.72221257  0.49259964  0.09298690    -0.75200
O1122       O  0.73235187  0.42189879  0.02558548    -0.75300
O1123       O  0.78554653  0.42962330  0.02575428    -0.75200
O1124       O  0.77553238  0.49826596  0.09597844    -0.75200
O1125       O  0.78319692  0.43418307  0.10200301    -0.75200
O1126       O  0.77744587  0.49420194  0.01991449    -0.75200
Ni1127     Ni  0.72532133  0.45711010  0.05904628     1.25400
Ni1128     Ni  0.78231940  0.46427229  0.06087886     1.25400
C1129       C  0.74877428  0.99972297  0.00552333     0.87000
C1130       C  0.75751226  0.42183898  0.11583909     0.87000
C1131       C  0.74625423  0.00740353  0.10680492     0.87000
C1132       C  0.76058988  0.41432179  0.01434752     0.87200
C1133       C  0.78674166  0.36108829  0.18975702    -0.21000
C1134       C  0.75770767  0.35258369  0.20778566    -0.07600
C1135       C  0.73043430  0.37225428  0.20035719     0.13300
C1136       C  0.73127397  0.39444386  0.17042962    -0.21100
C1137       C  0.75924883  0.39960483  0.14903175    -0.07600
C1138       C  0.78784602  0.38358833  0.16026009     0.13300
C1139       C  0.81962326  0.38892892  0.14080481    -0.24400
H1140       H  0.80909219  0.35003402  0.19837281     0.14600
H1141       H  0.70971045  0.40807934  0.16401455     0.14600
C1142       C  0.70012985  0.37119481  0.22349633    -0.24400
H1143       H  0.83902078  0.37354266  0.15264431     0.04800
H1144       H  0.82742345  0.41424303  0.14419014     0.08000
H1145       H  0.81725592  0.38301884  0.11058194     0.08000
H1146       H  0.70221977  0.35564311  0.24861428     0.08000
H1147       H  0.67964274  0.36276545  0.20595374     0.08000
H1148       H  0.69465126  0.39568613  0.23376004     0.04800
C1149       C  0.87774412  0.23008167  0.16026516    -0.21000
C1150       C  0.87929861  0.20962973  0.19204700    -0.07600
C1151       C  0.90439597  0.18632962  0.19276560     0.13300
C1152       C  0.92856755  0.18719764  0.16502013    -0.21100
C1153       C  0.92825278  0.21002854  0.13589226    -0.07600
C1154       C  0.90197364  0.23133153  0.13318146     0.13300
C1155       C  0.89823740  0.25467353  0.10086856    -0.24400
H1156       H  0.85679655  0.24462656  0.15491221     0.14600
H1157       H  0.94809321  0.16999813  0.16627498     0.14600
C1158       C  0.90563780  0.15949503  0.22132175    -0.24400
H1159       H  0.91748870  0.27315236  0.10201866     0.04800
H1160       H  0.87488484  0.26760336  0.10170491     0.08000
H1161       H  0.89931415  0.24163403  0.07381615     0.08000
H1162       H  0.88230410  0.14651495  0.22219909     0.08000
H1163       H  0.91186923  0.16875941  0.24942511     0.08000
H1164       H  0.92443496  0.14160746  0.21430886     0.04800
C1165       C  0.56560057  0.20073031  0.17319781    -0.21000
C1166       C  0.56401238  0.22385770  0.14456840    -0.07600
C1167       C  0.58681543  0.24898471  0.14435794     0.13300
C1168       C  0.61102130  0.24975759  0.17196185    -0.21100
C1169       C  0.61373741  0.22607952  0.20044634    -0.07600
C1170       C  0.58970711  0.20145682  0.20115613     0.13300
C1171       C  0.58895833  0.17522823  0.23063350    -0.24400
H1172       H  0.54779880  0.18165523  0.17352028     0.14600
H1173       H  0.62835528  0.26869026  0.16924978     0.14600
C1174       C  0.58711435  0.27424747  0.11381883    -0.24400
H1175       H  0.56941016  0.15759425  0.22514968     0.04800
H1176       H  0.58411237  0.18544079  0.25860898     0.06000
H1177       H  0.61175599  0.16153524  0.23129176     0.08000
H1178       H  0.56488045  0.28890960  0.11518741     0.08000
H1179       H  0.58883403  0.26263611  0.08592714     0.08000
H1180       H  0.60787638  0.29093894  0.11661523     0.04800
C1181       C  0.76687783  0.03673189  0.16234599    -0.21000
C1182       C  0.74284561  0.03357764  0.13486096    -0.07600
C1183       C  0.71685027  0.05535541  0.13489001     0.13300
C1184       C  0.71589955  0.07982601  0.16197180    -0.21100
C1185       C  0.74027569  0.08365695  0.18957958    -0.07600
C1186       C  0.76595843  0.06083185  0.18980144     0.13300
C1187       C  0.79288686  0.06089495  0.21866496    -0.24400
H1188       H  0.78544158  0.51560158  0.16509416     0.14600
H1189       H  0.69572586  0.09584256  0.16053002     0.14600
C1190       C  0.69051789  0.05382023  0.10559998    -0.24400
H1191       H  0.81037167  0.04124477  0.21376681     0.04800
H1192       H  0.78326628  0.05696347  0.24718525     0.08000
H1193       H  0.80696086  0.08342230  0.21775354     0.08000
H1194       H  0.67677215  0.03109808  0.10857475     0.08000
H1195       H  0.70117691  0.05532310  0.07713290     0.08000
H1196       H  0.67309806  0.07384597  0.10836146     0.04800
C1197       C  0.77649225  0.36742686  0.42649782    -0.21000
C1198       C  0.76288211  0.33732776  0.43571129    -0.07600
C1199       C  0.75533349  0.33146909  0.47420849     0.13300
C1200       C  0.75468885  0.35721009  0.49937480    -0.21100
C1201       C  0.76597239  0.38758360  0.48913695    -0.07600
C1202       C  0.77925656  0.39209720  0.45316798     0.13300
C1203       C  0.79652393  0.42271882  0.44295671    -0.24400
H1204       H  0.78619784  0.37159950  0.39885734     0.14600
H1205       H  0.74411011  0.35358238  0.02704688     0.14600
C1206       C  0.74885852  0.29865694  0.49080934    -0.24400
H1207       H  0.80466606  0.42271687  0.41333438     0.04800
H1208       H  0.81809653  0.42557542  0.46117946     0.08000
H1209       H  0.78051720  0.44357256  0.44698183     0.08000
H1210       H  0.75341447  0.27857994  0.47149050     0.08000
H1211       H  0.72355867  0.29726790  0.50065396     0.08000
H1212       H  0.76284925  0.29490922  0.01671199     0.04800
C1213       C  0.88434961  0.17835379  0.45216930    -0.21000
C1214       C  0.88468595  0.19956621  0.42095528    -0.07600
C1215       C  0.90976174  0.22307051  0.41974175     0.13300
C1216       C  0.93351685  0.22346928  0.44806560    -0.21100
C1217       C  0.93303576  0.20173397  0.47816938    -0.07600
C1218       C  0.90796498  0.17905681  0.48036966     0.13300
C1219       C  0.91771724  0.14481133  0.99914445    -0.24400
H1220       H  0.86456416  0.16222517  0.45690136     0.14600
H1221       H  0.95251520  0.24133805  0.44703743     0.14600
C1222       C  0.91150619  0.24893827  0.38993157    -0.24400
H1223       H  0.94164981  0.13323132  0.99665044     0.04800
H1224       H  0.89927246  0.12610009  0.99337322     0.08000
H1225       H  0.91402934  0.15322782  0.02830927     0.08000
H1226       H  0.88880809  0.26281727  0.38853402     0.08000
H1227       H  0.91685821  0.23841520  0.36225989     0.08000
H1228       H  0.93112166  0.26641392  0.39578973     0.04800
C1229       C  0.58735138  0.21846940  0.41846944    -0.21000
C1230       C  0.61996614  0.21467836  0.42926855    -0.07600
C1231       C  0.62684000  0.21059313  0.46847903     0.13300
C1232       C  0.60153562  0.20977835  0.49438006    -0.21100
C1233       C  0.56961776  0.21369065  0.48310074    -0.07600
C1234       C  0.56228967  0.21804035  0.44486074     0.13300
C1235       C  0.52784114  0.22168116  0.43188932    -0.24400
H1236       H  0.58074682  0.22195595  0.38953558     0.14600
H1237       H  0.60707774  0.21049342  0.02534170     0.14600
C1238       C  0.66022292  0.20697474  0.48524981    -0.24400
H1239       H  0.52604171  0.22446593  0.40095706     0.04800
H1240       H  0.51701114  0.24321011  0.44494431     0.08000
H1241       H  0.51371363  0.20013577  0.44014307     0.08000
H1242       H  0.66429997  0.22618593  0.50623635     0.08000
H1243       H  0.68023901  0.20849648  0.46516768     0.08000
H1244       H  0.66198577  0.18694179  0.00250186     0.04800
C1245       C  0.75391687  0.05640632  0.48446216    -0.21000
C1246       C  0.74601441  0.02517942  0.47395903    -0.07600
C1247       C  0.73576578  0.01956266  0.43659300     0.13300
C1248       C  0.73565375  0.04512837  0.41030427    -0.21100
C1249       C  0.74378694  0.07680419  0.42068059    -0.07600
C1250       C  0.75145707  0.08233747  0.45941829     0.13300
C1251       C  0.75719003  0.11499307  0.47669978    -0.24400
H1252       H  0.76136405  0.06048410  0.01466187     0.14600
H1253       H  0.72828511  0.04003643  0.38184845     0.14600
C1254       C  0.72895346  0.48493533  0.42595258    -0.24400
H1255       H  0.74109883  0.11790804  0.50123904     0.04800
H1256       H  0.75223955  0.13560407  0.45809740     0.08000
H1257       H  0.78256624  0.11671823  0.48654254     0.08000
H1258       H  0.70402397  0.48569806  0.41454708     0.08000
H1259       H  0.72943834  0.46683409  0.44878660     0.08000
H1260       H  0.74547184  0.47702874  0.40342880     0.04800
C1261       C  0.74306635  0.10347675  0.89321898     0.85800
C1262       C  0.71583027  0.12785465  0.90072662    -0.54500
C1263       C  0.71690091  0.15491222  0.87909905     0.08700
C1264       C  0.74550420  0.15446236  0.85194622     0.19600
C1265       C  0.74017424  0.09666778  0.85004070    -0.55200
C1266       C  0.74168674  0.12397515  0.82789022     0.08800
C1267       C  0.77504829  0.12232429  0.89609718    -0.54700
C1268       C  0.77620566  0.14985882  0.87558598     0.09400
H1269       H  0.69754717  0.12370713  0.92183592     0.13900
H1270       H  0.74670112  0.17569728  0.83608788    -0.00400
H1271       H  0.73816104  0.07293572  0.83805003     0.14200
H1272       H  0.79474144  0.11435399  0.91387178     0.14000
C1273       C  0.64670389  0.21452524  0.90055099     0.85800
C1274       C  0.67086131  0.24237615  0.90647489    -0.54500
C1275       C  0.69724730  0.24147762  0.88392631     0.08700
C1276       C  0.69599024  0.21291481  0.85683049     0.19600
C1277       C  0.63805302  0.21686525  0.85773594    -0.55200
C1278       C  0.66430053  0.21601771  0.83441656     0.08800
C1279       C  0.66664008  0.18324290  0.90342653    -0.54700
C1280       C  0.69305793  0.18235608  0.88087879     0.09400
H1281       H  0.66729780  0.26071575  0.92751554     0.13900
H1282       H  0.71637518  0.21219154  0.83961433    -0.00400
H1283       H  0.61397478  0.21888520  0.84639096     0.14200
H1284       H  0.66021917  0.16380628  0.92231246     0.14000
C1285       C  0.85566920  0.19856694  0.89389632     0.85800
C1286       C  0.83111949  0.17034535  0.89775347    -0.54500
C1287       C  0.80395115  0.17347807  0.87628611     0.08700
C1288       C  0.80419529  0.20465926  0.85344090     0.19600
C1289       C  0.86208906  0.20041239  0.85102495    -0.55200
C1290       C  0.83490110  0.20382160  0.82938778     0.08800
C1291       C  0.83513323  0.22842647  0.90322629    -0.54700
C1292       C  0.80815679  0.23214398  0.88171547     0.09400
H1293       H  0.83391589  0.14992934  0.91599801     0.13900
H1294       H  0.78300834  0.20700370  0.83747830    -0.00400
H1295       H  0.88591085  0.19804520  0.83907985     0.14200
H1296       H  0.84153914  0.24487380  0.92554287     0.14000
C1297       C  0.75955393  0.30949600  0.90609445     0.85800
C1298       C  0.78677744  0.28439568  0.90962624    -0.54500
C1299       C  0.78436922  0.25947013  0.88507410     0.08700
C1300       C  0.75451905  0.26250904  0.85976992     0.19600
C1301       C  0.75995645  0.31992121  0.86383079    -0.55200
C1302       C  0.75724695  0.29489696  0.83910486     0.08800
C1303       C  0.72752709  0.29041776  0.90916499    -0.54700
C1304       C  0.72508511  0.26495918  0.88541296     0.09400
H1305       H  0.80623769  0.28668752  0.92985904     0.13900
H1306       H  0.75249518  0.24301528  0.84161805    -0.00400
H1307       H  0.76096762  0.34457476  0.85422757     0.14200
H1308       H  0.70868422  0.29668539  0.92871723     0.14000
C1309       C  0.73893548  0.10991390  0.71838125     0.85800
C1310       C  0.76993985  0.13034419  0.71334128    -0.54500
C1311       C  0.77282524  0.15569045  0.73721184     0.08700
C1312       C  0.74384213  0.15794598  0.76357420     0.19600
C1313       C  0.73803846  0.10049190  0.76080015    -0.55200
C1314       C  0.74114406  0.12577878  0.78502632     0.08800
C1315       C  0.71117370  0.13508859  0.71476613    -0.54700
C1316       C  0.71394445  0.16071666  0.73841552     0.09400
H1317       H  0.78764488  0.12521474  0.69193631     0.13900
H1318       H  0.74576159  0.17764934  0.78140428    -0.00400
H1319       H  0.73423745  0.07614478  0.77059552     0.14200
H1320       H  0.69070169  0.13312234  0.69623472     0.14000
C1321       C  0.64387102  0.22285830  0.72655344     0.85800
C1322       C  0.66443202  0.19286828  0.71792474    -0.54500
C1323       C  0.69083193  0.18887124  0.74032423     0.08700
C1324       C  0.69467764  0.21675717  0.76816323     0.19600
C1325       C  0.63681304  0.22122962  0.76938686    -0.55200
C1326       C  0.66366532  0.21783077  0.79169247     0.08800
C1327       C  0.66855689  0.25103569  0.72296575    -0.54700
C1328       C  0.69540180  0.24797570  0.74491065     0.09400
H1329       H  0.65841166  0.17649448  0.69541186     0.13900
H1330       H  0.71557929  0.21417714  0.78459399    -0.00400
H1331       H  0.61276195  0.22342772  0.78075286     0.14200
H1332       H  0.66600542  0.27159507  0.70484973     0.14000
C1333       C  0.85056260  0.20731397  0.72072094     0.85800
C1334       C  0.83048679  0.23867082  0.71913317    -0.54500
C1335       C  0.80430413  0.23906674  0.74181254     0.08700
C1336       C  0.80162693  0.20815054  0.76507637     0.19600
C1337       C  0.85967304  0.20516990  0.76312353    -0.55200
C1338       C  0.83366703  0.20513798  0.78682972     0.08800
C1339       C  0.82605882  0.17985052  0.71399037    -0.54700
C1340       C  0.80016533  0.17994780  0.73747538     0.09400
H1341       H  0.83777292  0.25979008  0.70363162     0.13900
H1342       H  0.78139764  0.20884475  0.78256605    -0.00400
H1343       H  0.88418538  0.20571210  0.77349032     0.14200
H1344       H  0.82928116  0.16204306  0.69226016     0.14000
C1345       C  0.75638757  0.31950184  0.73239523     0.85800
C1346       C  0.72518212  0.29962311  0.72554994    -0.54500
C1347       C  0.72284569  0.27211452  0.74659368     0.08700
C1348       C  0.75264557  0.26731076  0.77164761     0.19600
C1349       C  0.75794358  0.32492402  0.77548012    -0.55200
C1350       C  0.75598807  0.29730458  0.79652043     0.08800
C1351       C  0.78328298  0.29457582  0.72443257    -0.54700
C1352       C  0.78162678  0.26717888  0.74536154     0.09400
H1353       H  0.70711856  0.30663710  0.70508623     0.13900
H1354       H  0.75127202  0.24579816  0.78697321    -0.00400
H1355       H  0.76051876  0.34854475  0.78778356     0.14200
H1356       H  0.80077588  0.29712724  0.70233999     0.14000
O1357       O  0.97025709  0.18017623  0.52331445    -0.75100
O1358       O  0.53253674  0.19007378  0.60239303    -0.75200
O1359       O  0.96802178  0.18319001  0.59925479    -0.75200
O1360       O  0.53592241  0.18626168  0.52635699    -0.75300
O1361       O  0.53119319  0.23948622  0.52175798    -0.75200
O1362       O  0.96267997  0.23626206  0.59505133    -0.75200
O1363       O  0.52786626  0.24310912  0.59787387    -0.75200
O1364       O  0.96514260  0.23331322  0.51927646    -0.75200
Ni1365     Ni  0.00180375  0.18319313  0.56281751     1.25400
Ni1366     Ni  0.99608894  0.24008563  0.55831073     1.25400
C1367       C  0.95738188  0.20512849  0.50836970     0.87000
C1368       C  0.54038468  0.21829263  0.61342142     0.87000
C1369       C  0.95397738  0.20916090  0.60887977     0.87000
C1370       C  0.54434810  0.21313036  0.51184370     0.87200
O1371       O  0.72525247  0.48544151  0.51864096    -0.75100
O1372       O  0.73115038  0.42781127  0.60322272    -0.75200
O1373       O  0.72283733  0.49191142  0.59495623    -0.75200
O1374       O  0.73404082  0.42130247  0.52744162    -0.75300
O1375       O  0.78715995  0.42953214  0.52778447    -0.75200
O1376       O  0.77603287  0.49810914  0.59812680    -0.75200
O1377       O  0.78435220  0.43390021  0.60418555    -0.75200
O1378       O  0.77826520  0.49386270  0.52182380    -0.75200
Ni1379     Ni  0.72645291  0.45636907  0.56093893     1.25400
Ni1380     Ni  0.78334831  0.46409358  0.56300782     1.25400
C1381       C  0.74817169  0.00006746  0.50367129     0.87000
C1382       C  0.75869898  0.42120789  0.61775545     0.87000
C1383       C  0.74517120  0.00668516  0.60546470     0.87000
C1384       C  0.76236058  0.41413761  0.51609169     0.87200
C1385       C  0.78740177  0.35853790  0.68971232    -0.21000
C1386       C  0.75849525  0.35063646  0.70843947    -0.07600
C1387       C  0.73170157  0.37122168  0.70208806     0.13300
C1388       C  0.73271495  0.39394731  0.67267650    -0.21100
C1389       C  0.76040097  0.39857404  0.65060395    -0.07600
C1390       C  0.78860051  0.38136532  0.66055340     0.13300
C1391       C  0.81995105  0.38568601  0.63988280    -0.24400
H1392       H  0.80961386  0.34682053  0.69749493     0.14600
H1393       H  0.71149579  0.40836038  0.66711001     0.14600
C1394       C  0.70170628  0.37054043  0.72578014    -0.24400
H1395       H  0.83899637  0.36928370  0.65055533     0.04800
H1396       H  0.82894184  0.41058534  0.64346305     0.08000
H1397       H  0.81638093  0.38041345  0.60964461     0.08000
H1398       H  0.70359554  0.35434631  0.75034682     0.08000
H1399       H  0.68074448  0.36313228  0.70836534     0.08000
H1400       H  0.69713039  0.39494084  0.73690442     0.04800
C1401       C  0.87534162  0.22543279  0.65895919    -0.21000
C1402       C  0.87818636  0.20648627  0.69188262    -0.07600
C1403       C  0.90420182  0.18427081  0.69350956     0.13300
C1404       C  0.92856233  0.18576483  0.66609936    -0.21100
C1405       C  0.92721659  0.20780715  0.63621616    -0.07600
C1406       C  0.89950648  0.22692736  0.63181863     0.13300
C1407       C  0.89427958  0.24781183  0.59757110    -0.24400
H1408       H  0.85352588  0.23858135  0.65307633     0.14600
H1409       H  0.94900540  0.16970591  0.66819305     0.14600
C1410       C  0.90617448  0.15781417  0.72248218    -0.24400
H1411       H  0.91221307  0.26757024  0.59698467     0.04800
H1412       H  0.87004155  0.25905023  0.59731865     0.08000
H1413       H  0.89641061  0.23314792  0.57177546     0.08000
H1414       H  0.88294228  0.14470005  0.72419657     0.08000
H1415       H  0.91298331  0.16744480  0.75023696     0.08000
H1416       H  0.92491616  0.13995130  0.71518597     0.04800
C1417       C  0.56749010  0.19713271  0.67094367    -0.21000
C1418       C  0.56431157  0.22199145  0.64450469    -0.07600
C1419       C  0.58442674  0.24924554  0.64802321     0.13300
C1420       C  0.60813128  0.24997695  0.67626193    -0.21100
C1421       C  0.61344674  0.22395715  0.70112072    -0.07600
C1422       C  0.59115845  0.19780701  0.69940845     0.13300
C1423       C  0.59151363  0.17022161  0.72719706    -0.24400
H1424       H  0.55128289  0.17675709  0.66920743     0.14600
H1425       H  0.62243499  0.27138681  0.67784489     0.14600
C1426       C  0.58221426  0.27737958  0.62127428    -0.24400
H1427       H  0.57188469  0.15274288  0.72143335     0.04800
H1428       H  0.58760904  0.17914437  0.75599780     0.06000
H1429       H  0.61427114  0.15656018  0.72610532     0.08000
H1430       H  0.55848410  0.28930526  0.62411947     0.08000
H1431       H  0.58553812  0.26906565  0.59200496     0.08000
H1432       H  0.60099206  0.29577738  0.62696143     0.04800
C1433       C  0.76404753  0.03315036  0.66398662    -0.21000
C1434       C  0.74182958  0.03231450  0.63426859    -0.07600
C1435       C  0.71763378  0.05598569  0.63261327     0.13300
C1436       C  0.71645722  0.07985184  0.66043047    -0.21100
C1437       C  0.73871797  0.08112535  0.69071465    -0.07600
C1438       C  0.76286760  0.05670575  0.69218845     0.13300
C1439       C  0.78802272  0.05472364  0.72299214    -0.24400
H1440       H  0.78833636  0.51882644  0.66422674     0.14600
H1441       H  0.69828789  0.09789594  0.65689289     0.14600
C1442       C  0.69381645  0.05724687  0.60051286    -0.24400
H1443       H  0.80559201  0.03518848  0.71788352     0.04800
H1444       H  0.77667778  0.04919029  0.75026272     0.08000
H1445       H  0.80215538  0.07719237  0.72498502     0.08000
H1446       H  0.67825552  0.03557424  0.60092758     0.08000
H1447       H  0.70688772  0.05863282  0.57344342     0.08000
H1448       H  0.67777934  0.07847604  0.60222009     0.04800
C1449       C  0.77640722  0.36595404  0.92633046    -0.21000
C1450       C  0.76299643  0.33588316  0.93595656    -0.07600
C1451       C  0.75434599  0.33079775  0.97429355     0.13300
C1452       C  0.75288428  0.35707390  0.99870160    -0.21100
C1453       C  0.76409529  0.38736492  0.98791845    -0.07600
C1454       C  0.77795022  0.39131382  0.95217596     0.13300
C1455       C  0.79426744  0.42224361  0.94116218    -0.24400
H1456       H  0.78673446  0.36968470  0.89892208     0.14600
H1457       H  0.74646921  0.35321638  0.52786108     0.14600
C1458       C  0.74742770  0.29829120  0.99145000    -0.24400
H1459       H  0.80288726  0.42174331  0.91173690     0.04800
H1460       H  0.81541767  0.42643695  0.95968846     0.08000
H1461       H  0.77736097  0.44253946  0.94398778     0.08000
H1462       H  0.75281088  0.27793365  0.97280908     0.08000
H1463       H  0.72179403  0.29695335  0.00008817     0.08000
H1464       H  0.76515786  0.29474143  0.51520848     0.04800
C1465       C  0.89184355  0.17155211  0.94371754    -0.21000
C1466       C  0.88638433  0.19740359  0.91869211    -0.07600
C1467       C  0.90860068  0.22358134  0.91998381     0.13300
C1468       C  0.93186721  0.22488175  0.94881436    -0.21100
C1469       C  0.93496337  0.20034476  0.97567051    -0.07600
C1470       C  0.91530031  0.17276794  0.97217411     0.13300
C1471       C  0.90453372  0.15696502  0.51383897    -0.24400
H1472       H  0.87782050  0.14995520  0.94214095     0.14600
H1473       H  0.94796629  0.24535721  0.95033546     0.14600
C1474       C  0.90870492  0.25034568  0.89114739    -0.24400
H1475       H  0.92522851  0.14020884  0.51528876     0.04800
H1476       H  0.88225798  0.14220232  0.51228519     0.08000
H1477       H  0.90347306  0.17128428  0.53999873     0.08000
H1478       H  0.88557775  0.26344011  0.89045444     0.08000
H1479       H  0.91392155  0.24060376  0.86299812     0.08000
H1480       H  0.92773646  0.26840444  0.89717177     0.04800
C1481       C  0.58704045  0.21830246  0.91942932    -0.21000
C1482       C  0.61973213  0.21519185  0.93017634    -0.07600
C1483       C  0.62680562  0.21262121  0.96952845     0.13300
C1484       C  0.60160914  0.21267268  0.99563783    -0.21100
C1485       C  0.56956185  0.21556552  0.98435114    -0.07600
C1486       C  0.56207959  0.21850022  0.94597084     0.13300
C1487       C  0.52753861  0.22123153  0.93302881    -0.24400
H1488       H  0.58028669  0.22052670  0.89037423     0.14600
H1489       H  0.60685176  0.20648247  0.52398625     0.14600
C1490       C  0.66029048  0.20966734  0.98622249    -0.24400
H1491       H  0.52559895  0.22299700  0.90201211     0.04800
H1492       H  0.51642702  0.24300689  0.94519268     0.08000
H1493       H  0.51375655  0.19976325  0.94228828     0.08000
H1494       H  0.66470919  0.23003363  0.00556823     0.08000
H1495       H  0.68015882  0.20963713  0.96588243     0.08000
H1496       H  0.66201931  0.18336870  0.49968897     0.04800
C1497       C  0.75387318  0.05586405  0.98596257    -0.21000
C1498       C  0.74594253  0.02459530  0.97574132    -0.07600
C1499       C  0.73463779  0.01883919  0.93881318     0.13300
C1500       C  0.73403961  0.04428709  0.91240700    -0.21100
C1501       C  0.74253321  0.07595072  0.92243186    -0.07600
C1502       C  0.75069451  0.08168839  0.96096399     0.13300
C1503       C  0.75625253  0.11444958  0.97804484    -0.24400
H1504       H  0.76087544  0.06090448  0.51336386     0.14600
H1505       H  0.72603983  0.03913520  0.88419015     0.14600
C1506       C  0.72791483  0.48738544  0.92430241    -0.24400
H1507       H  0.74032200  0.11727616  0.00274148     0.04800
H1508       H  0.75099085  0.13495593  0.95939959     0.08000
H1509       H  0.78168423  0.11645107  0.98760918     0.08000
H1510       H  0.70309594  0.48872716  0.91264266     0.08000
H1511       H  0.72788810  0.46900711  0.94683039     0.08000
H1512       H  0.74447765  0.47946164  0.90183229     0.04800
C1513       C  0.74509029  0.60283985  0.39336117     0.85800
C1514       C  0.71744044  0.62688647  0.40065880    -0.54500
C1515       C  0.71817971  0.65391537  0.37887844     0.08700
C1516       C  0.74685005  0.65378892  0.35193393     0.19600
C1517       C  0.74236468  0.59595359  0.35016646    -0.55200
C1518       C  0.74345639  0.62327915  0.32799933     0.08800
C1519       C  0.77675739  0.62219286  0.39627357    -0.54700
C1520       C  0.77755130  0.64967096  0.37557883     0.09400
H1521       H  0.69911868  0.62252816  0.42166519     0.13900
H1522       H  0.74781123  0.67499260  0.33608279    -0.00400
H1523       H  0.74059642  0.57221673  0.33815672     0.14200
H1524       H  0.79650477  0.61454241  0.41415855     0.14000
C1525       C  0.64718459  0.71276774  0.39949105     0.85800
C1526       C  0.67116492  0.74083315  0.40556193    -0.54500
C1527       C  0.69760392  0.74025018  0.38298146     0.08700
C1528       C  0.69664312  0.71165636  0.35597473     0.19600
C1529       C  0.63865215  0.71514726  0.35668780    -0.55200
C1530       C  0.66496917  0.71468667  0.33349081     0.08800
C1531       C  0.66735253  0.68164706  0.40238742    -0.54700
C1532       C  0.69391115  0.68104169  0.38010127     0.09400
H1533       H  0.66736801  0.75915322  0.42656663     0.13900
H1534       H  0.71707068  0.71112895  0.33879118    -0.00400
H1535       H  0.61459331  0.71702925  0.34526023     0.14200
H1536       H  0.66105249  0.66213462  0.42122575     0.14000
C1537       C  0.85647167  0.69924534  0.39328293     0.85800
C1538       C  0.83213680  0.67089430  0.39735100    -0.54500
C1539       C  0.80499906  0.67361795  0.37588681     0.08700
C1540       C  0.80496531  0.70463954  0.35270908     0.19600
C1541       C  0.86292297  0.70091300  0.35036337    -0.55200
C1542       C  0.83570266  0.70395288  0.32865656     0.08800
C1543       C  0.83566468  0.72904620  0.40227212    -0.54700
C1544       C  0.80863672  0.73238235  0.38068485     0.09400
H1545       H  0.83494199  0.65066321  0.41583089     0.13900
H1546       H  0.78373718  0.70667425  0.33676926    -0.00400
H1547       H  0.88678316  0.69883014  0.33844395     0.14200
H1548       H  0.84188900  0.74569251  0.42445074     0.14000
C1549       C  0.75900623  0.80933021  0.40450062     0.85800
C1550       C  0.78655423  0.78456216  0.40814498    -0.54500
C1551       C  0.78449954  0.75950217  0.38372870     0.08700
C1552       C  0.75460804  0.76211394  0.35835307     0.19600
C1553       C  0.75934941  0.81965112  0.36221653    -0.55200
C1554       C  0.75701484  0.79455547  0.33755538     0.08800
C1555       C  0.72720971  0.78984762  0.40760954    -0.54700
C1556       C  0.72510608  0.76423231  0.38405326     0.09400
H1557       H  0.80595534  0.78714521  0.42840500     0.13900
H1558       H  0.75283661  0.74250759  0.34026298    -0.00400
H1559       H  0.76014253  0.84428922  0.35253219     0.14200
H1560       H  0.70829503  0.79590697  0.42716130     0.14000
C1561       C  0.74013280  0.60933264  0.21871508     0.85800
C1562       C  0.77075343  0.63013232  0.21330436    -0.54500
C1563       C  0.77352796  0.65543470  0.23717889     0.08700
C1564       C  0.74470740  0.65742767  0.26374442     0.19600
C1565       C  0.73965976  0.59986827  0.26106134    -0.55200
C1566       C  0.74256369  0.62518301  0.28521433     0.08800
C1567       C  0.71204555  0.63410275  0.21521391    -0.54700
C1568       C  0.71465854  0.65980214  0.23867981     0.09400
H1569       H  0.78826650  0.62527146  0.19160757     0.13900
H1570       H  0.74663871  0.67722669  0.28148288    -0.00400
H1571       H  0.73639724  0.57543458  0.27085128     0.14200
H1572       H  0.69161703  0.63205491  0.19666013     0.14000
C1573       C  0.64460333  0.72177065  0.22567058     0.85800
C1574       C  0.66494073  0.69150726  0.21770644    -0.54500
C1575       C  0.69152122  0.68790828  0.23995010     0.08700
C1576       C  0.69540035  0.71601090  0.26730402     0.19600
C1577       C  0.63750067  0.72062807  0.26854103    -0.55200
C1578       C  0.66437073  0.71702336  0.29083642     0.08800
C1579       C  0.66892480  0.75020005  0.22237394    -0.54700
C1580       C  0.69600454  0.74709827  0.24375299     0.09400
H1581       H  0.65834677  0.67448828  0.19606687     0.13900
H1582       H  0.71630287  0.71364901  0.28376194    -0.00400
H1583       H  0.61362960  0.72360481  0.28005356     0.14200
H1584       H  0.66480439  0.77198240  0.20667647     0.14000
C1585       C  0.85091826  0.70677929  0.21977556     0.85800
C1586       C  0.83092560  0.73818971  0.21776940    -0.54500
C1587       C  0.80487502  0.73888076  0.24070063     0.08700
C1588       C  0.80227508  0.70819569  0.26441063     0.19600
C1589       C  0.86032058  0.70498474  0.26216030    -0.55200
C1590       C  0.83441603  0.70532216  0.28605991     0.08800
C1591       C  0.82643169  0.67936817  0.21356504    -0.54700
C1592       C  0.80068823  0.67975948  0.23714718     0.09400
H1593       H  0.83798263  0.75894446  0.20144379     0.13900
H1594       H  0.78206059  0.70893030  0.28192240    -0.00400
H1595       H  0.88505251  0.70400713  0.27202952     0.14200
H1596       H  0.82966296  0.66129012  0.19214675     0.14000
C1597       C  0.75644418  0.81901286  0.23062034     0.85800
C1598       C  0.72537434  0.79887553  0.22386635    -0.54500
C1599       C  0.72320458  0.77147828  0.24517726     0.08700
C1600       C  0.75300919  0.76695772  0.27017635     0.19600
C1601       C  0.75788799  0.82455485  0.27374807    -0.55200
C1602       C  0.75604869  0.79697145  0.29492537     0.08800
C1603       C  0.78354436  0.79421735  0.22284900    -0.54700
C1604       C  0.78202855  0.76690015  0.24393533     0.09400
H1605       H  0.70726974  0.80566360  0.20333324     0.13900
H1606       H  0.75169464  0.74555634  0.28562980    -0.00400
H1607       H  0.76022182  0.84822861  0.28597232     0.14200
H1608       H  0.80111093  0.79672324  0.20084040     0.14000
O1609       O  0.97147096  0.67848250  0.02242091    -0.75100
O1610       O  0.53239399  0.68966171  0.10254298    -0.75200
O1611       O  0.96822061  0.68134213  0.09864731    -0.75200
O1612       O  0.53668943  0.68668620  0.02668231    -0.75300
O1613       O  0.53136188  0.73984079  0.02192747    -0.75200
O1614       O  0.96297961  0.73444542  0.09460872    -0.75200
O1615       O  0.52841175  0.74284166  0.09789830    -0.75200
O1616       O  0.96610266  0.73149198  0.01878246    -0.75200
Ni1617     Ni  0.00237748  0.68137989  0.06255155     1.25400
Ni1618     Ni  0.99660925  0.73825160  0.05833692     1.25400
C1619       C  0.95892803  0.70337490  0.00700642     0.87000
C1620       C  0.54070616  0.71777952  0.11321887     0.87000
C1621       C  0.95427717  0.70736203  0.10837500     0.87000
C1622       C  0.54494349  0.71367640  0.01223095     0.87200
O1623       O  0.72342797  0.98570094  0.01787626    -0.75100
O1624       O  0.73009842  0.92855468  0.10274088    -0.75200
O1625       O  0.72138260  0.99272340  0.09392874    -0.75200
O1626       O  0.73279685  0.92167477  0.02694974    -0.75300
O1627       O  0.78586534  0.93026604  0.02704762    -0.75200
O1628       O  0.77459526  0.99915797  0.09658852    -0.75200
O1629       O  0.78326992  0.93496155  0.10338274    -0.75200
O1630       O  0.77642025  0.99441070  0.02059492    -0.75200
Ni1631     Ni  0.72505246  0.95688218  0.06028914     1.25400
Ni1632     Ni  0.78192764  0.96494048  0.06194562     1.25400
C1633       C  0.74994216  0.50024873  0.00492985     0.87000
C1634       C  0.75775188  0.92204193  0.11704768     0.87000
C1635       C  0.74725903  0.50663635  0.10628213     0.87000
C1636       C  0.76114539  0.91472390  0.01546707     0.87200
C1637       C  0.78690578  0.85806439  0.18719034    -0.21000
C1638       C  0.75826583  0.85016596  0.20652008    -0.07600
C1639       C  0.73149313  0.87097587  0.20092713     0.13300
C1640       C  0.73232738  0.89422692  0.17203003    -0.21100
C1641       C  0.75974236  0.89903960  0.14956068    -0.07600
C1642       C  0.78786478  0.88133734  0.15847625     0.13300
C1643       C  0.81886752  0.88561421  0.13709171    -0.24400
H1644       H  0.80916617  0.84613889  0.19421304     0.14600
H1645       H  0.71114073  0.90885191  0.16710877     0.14600
C1646       C  0.70161358  0.86994373  0.22480528    -0.24400
H1647       H  0.83788588  0.86879238  0.14687933     0.04800
H1648       H  0.82825096  0.91033269  0.14100603     0.08000
H1649       H  0.81465256  0.88090922  0.10682915     0.08000
H1650       H  0.70347206  0.85324235  0.24889123     0.08000
H1651       H  0.68054165  0.86299278  0.20731015     0.08000
H1652       H  0.69720991  0.89412836  0.23663772     0.04800
C1653       C  0.87513408  0.72328317  0.15727472    -0.21000
C1654       C  0.87822669  0.70519742  0.19077495    -0.07600
C1655       C  0.90463173  0.68353732  0.19333732     0.13300
C1656       C  0.92948539  0.68536919  0.16665343    -0.21100
C1657       C  0.92757344  0.70622479  0.13568857    -0.07600
C1658       C  0.89936304  0.72442116  0.13019900     0.13300
C1659       C  0.89379352  0.74394669  0.09495063    -0.24400
H1660       H  0.85312177  0.73602261  0.15104738     0.14600
H1661       H  0.95026033  0.66981762  0.16965120     0.14600
C1662       C  0.90692412  0.65687790  0.22197767    -0.24400
H1663       H  0.91125735  0.76408470  0.09347448     0.04800
H1664       H  0.86927847  0.75455784  0.09403154     0.08000
H1665       H  0.89641793  0.72843069  0.06991531     0.08000
H1666       H  0.88459021  0.65318407  0.23815211     0.08000
H1667       H  0.92724549  0.66166314  0.24154118     0.08000
H1668       H  0.91146240  0.63383872  0.20741552     0.04800
C1669       C  0.56545567  0.69916621  0.17311011    -0.21000
C1670       C  0.56538605  0.72107534  0.14316465    -0.07600
C1671       C  0.59035876  0.74388986  0.14070699     0.13300
C1672       C  0.61453772  0.74436717  0.16828125    -0.21100
C1673       C  0.61491305  0.72284214  0.19916968    -0.07600
C1674       C  0.58973030  0.69942380  0.20089324     0.13300
C1675       C  0.58825258  0.67361076  0.23080485    -0.24400
H1676       H  0.54643514  0.68132918  0.17448028     0.14600
H1677       H  0.63405185  0.76076312  0.16339857     0.14600
C1678       C  0.59302850  0.76653747  0.10763368    -0.24400
H1679       H  0.56840389  0.65628885  0.22540932     0.04800
H1680       H  0.58342205  0.68418494  0.25857911     0.06000
H1681       H  0.61082580  0.65952613  0.23175961     0.08000
H1682       H  0.57232595  0.78332040  0.10723375     0.08000
H1683       H  0.59351580  0.75267495  0.08111154     0.08000
H1684       H  0.61532073  0.78129500  0.10882427     0.04800
C1685       C  0.76650905  0.53346952  0.16412839    -0.21000
C1686       C  0.74386494  0.53215782  0.13491140    -0.07600
C1687       C  0.71900533  0.55511357  0.13368071     0.13300
C1688       C  0.71752939  0.57876546  0.16156008    -0.21100
C1689       C  0.74027600  0.58063358  0.19124405    -0.07600
C1690       C  0.76516791  0.55696388  0.19227623     0.13300
C1691       C  0.79097565  0.55577002  0.22243482    -0.24400
H1692       H  0.78659484  0.01971890  0.16262970     0.14600
H1693       H  0.69865819  0.59611795  0.15853437     0.14600
C1694       C  0.69473034  0.55588627  0.10200163    -0.24400
H1695       H  0.80869434  0.53638591  0.21723949     0.04800
H1696       H  0.78029023  0.55053581  0.25014292     0.08000
H1697       H  0.80490275  0.57840088  0.22358198     0.08000
H1698       H  0.67956449  0.53394579  0.10272276     0.08000
H1699       H  0.70740574  0.55752369  0.07469343     0.08000
H1700       H  0.67830544  0.57680150  0.10396089     0.04800
C1701       C  0.77502439  0.86613455  0.42471785    -0.21000
C1702       C  0.76208088  0.83584728  0.43433838    -0.07600
C1703       C  0.75361935  0.83064056  0.47271524     0.13300
C1704       C  0.75189428  0.85688119  0.49720259    -0.21100
C1705       C  0.76266417  0.88735737  0.48647584    -0.07600
C1706       C  0.77638468  0.89147783  0.45065918     0.13300
C1707       C  0.79246252  0.92254571  0.43970599    -0.24400
H1708       H  0.78519598  0.87004447  0.39726322     0.14600
H1709       H  0.74706323  0.85338392  0.02733334     0.14600
C1710       C  0.74716751  0.79802571  0.48984341    -0.24400
H1711       H  0.80110229  0.92214529  0.41028501     0.04800
H1712       H  0.81357770  0.92686746  0.45824809     0.08000
H1713       H  0.77539381  0.94271265  0.44255887     0.08000
H1714       H  0.75269593  0.77774385  0.47115494     0.08000
H1715       H  0.72159088  0.79637456  0.49863453     0.08000
H1716       H  0.76664601  0.79534137  0.01454062     0.04800
C1717       C  0.89249118  0.67228748  0.44338938    -0.21000
C1718       C  0.88711141  0.69815486  0.41831656    -0.07600
C1719       C  0.90935872  0.72428748  0.41976146     0.13300
C1720       C  0.93263265  0.72545682  0.44864117    -0.21100
C1721       C  0.93552020  0.70094153  0.47559552    -0.07600
C1722       C  0.91568309  0.67351524  0.47211204     0.13300
C1723       C  0.92198920  0.64192886  0.99097218    -0.24400
H1724       H  0.87865310  0.65060303  0.44167929     0.14600
H1725       H  0.94882043  0.74585833  0.45020072     0.14600
C1726       C  0.90947423  0.75112427  0.39103728    -0.24400
H1727       H  0.94674371  0.63237391  0.98768396     0.04800
H1728       H  0.90499583  0.62271724  0.98220401     0.08000
H1729       H  0.91722070  0.64713518  0.02094447     0.08000
H1730       H  0.88637388  0.76427112  0.39050767     0.08000
H1731       H  0.91456139  0.74144724  0.36282412     0.08000
H1732       H  0.92857767  0.76910441  0.39707477     0.04800
C1733       C  0.58731013  0.71601857  0.41803210    -0.21000
C1734       C  0.62000974  0.71306700  0.42892377    -0.07600
C1735       C  0.62690520  0.71018546  0.46827050     0.13300
C1736       C  0.60161023  0.70998315  0.49424388    -0.21100
C1737       C  0.56959937  0.71306801  0.48289780    -0.07600
C1738       C  0.56223089  0.71605168  0.44447820     0.13300
C1739       C  0.52772590  0.71874741  0.43140604    -0.24400
H1740       H  0.58064666  0.71834241  0.38895847     0.14600
H1741       H  0.60730029  0.70537814  0.02463441     0.14600
C1742       C  0.66032233  0.70722292  0.48512784    -0.24400
H1743       H  0.52588155  0.72059759  0.40038637     0.04800
H1744       H  0.51653399  0.74046166  0.44361691     0.08000
H1745       H  0.51396001  0.69722715  0.44053358     0.08000
H1746       H  0.66445175  0.72726453  0.50501082     0.08000
H1747       H  0.68030505  0.70781312  0.46494841     0.08000
H1748       H  0.66299532  0.68315594  0.99994689     0.04800
C1749       C  0.75513447  0.55560576  0.48674099    -0.21000
C1750       C  0.74827811  0.52410486  0.47645093    -0.07600
C1751       C  0.73859575  0.51790516  0.43901063     0.13300
C1752       C  0.73794417  0.54327933  0.41247794    -0.21100
C1753       C  0.74498190  0.57527160  0.42266019    -0.07600
C1754       C  0.75223364  0.58126743  0.46139721     0.13300
C1755       C  0.75715870  0.61416143  0.47836593    -0.24400
H1756       H  0.76181795  0.56123570  0.01541093     0.14600
H1757       H  0.73106597  0.53773621  0.38398405     0.14600
C1758       C  0.72500045  0.98700175  0.42333437    -0.24400
H1759       H  0.74055149  0.61706767  0.50243400     0.04800
H1760       H  0.75237689  0.63454283  0.45937454     0.08000
H1761       H  0.78231594  0.61633001  0.48883611     0.08000
H1762       H  0.69994361  0.98857180  0.41243683     0.08000
H1763       H  0.72533417  0.96866892  0.44591231     0.08000
H1764       H  0.74096117  0.97884461  0.40039416     0.04800
C1765       C  0.74592457  0.60523429  0.89365165     0.85800
C1766       C  0.71833008  0.62925936  0.90117042    -0.54500
C1767       C  0.71896399  0.65630190  0.87942994     0.08700
C1768       C  0.74751730  0.65622953  0.85226523     0.19600
C1769       C  0.74315746  0.59841339  0.85047368    -0.55200
C1770       C  0.74420184  0.62568692  0.82832702     0.08800
C1771       C  0.77758133  0.62463020  0.89653844    -0.54700
C1772       C  0.77825898  0.65214991  0.87584694     0.09400
H1773       H  0.70014488  0.62490330  0.92233774     0.13900
H1774       H  0.74838718  0.67742427  0.83632918    -0.00400
H1775       H  0.74155125  0.57470745  0.83838018     0.14200
H1776       H  0.79740808  0.61697517  0.91430336     0.14000
C1777       C  0.64824536  0.71525954  0.90094102     0.85800
C1778       C  0.67228164  0.74322387  0.90694869    -0.54500
C1779       C  0.69849761  0.74269672  0.88406753     0.08700
C1780       C  0.69738758  0.71409811  0.85701300     0.19600
C1781       C  0.63943916  0.71747068  0.85820394    -0.55200
C1782       C  0.66557363  0.71691501  0.83478148     0.08800
C1783       C  0.66837104  0.68407231  0.90362005    -0.54700
C1784       C  0.69480872  0.68348458  0.88111080     0.09400
H1785       H  0.66866566  0.76146711  0.92809349     0.13900
H1786       H  0.71768116  0.71356759  0.83964484    -0.00400
H1787       H  0.61527139  0.71865771  0.84695205     0.14200
H1788       H  0.66209256  0.66447633  0.92234407     0.14000
C1789       C  0.85709131  0.70175727  0.89315200     0.85800
C1790       C  0.83276598  0.67349499  0.89746922    -0.54500
C1791       C  0.80566401  0.67610802  0.87596543     0.08700
C1792       C  0.80550334  0.70718558  0.85282967     0.19600
C1793       C  0.86344187  0.70376922  0.85028437    -0.55200
C1794       C  0.83615482  0.70669204  0.82870603     0.08800
C1795       C  0.83624277  0.73141800  0.90253825    -0.54700
C1796       C  0.80926460  0.73487674  0.88086760     0.09400
H1797       H  0.83531282  0.65388864  0.91699238     0.13900
H1798       H  0.78423629  0.70924245  0.83694787    -0.00400
H1799       H  0.88735370  0.70216702  0.83836310     0.14200
H1800       H  0.84220756  0.74771231  0.92514848     0.14000
C1801       C  0.76001283  0.81182981  0.90486793     0.85800
C1802       C  0.78762905  0.78716868  0.90809331    -0.54500
C1803       C  0.78527670  0.76205656  0.88388381     0.08700
C1804       C  0.75517338  0.76461006  0.85887751     0.19600
C1805       C  0.75989000  0.82217365  0.86255080    -0.55200
C1806       C  0.75723819  0.79700624  0.83795575     0.08800
C1807       C  0.72826294  0.79231947  0.90845321    -0.54700
C1808       C  0.72595211  0.76670627  0.88491938     0.09400
H1809       H  0.80725067  0.78980668  0.92805752     0.13900
H1810       H  0.75329289  0.74497528  0.84092011    -0.00400
H1811       H  0.76062860  0.84680685  0.85283577     0.14200
H1812       H  0.70959217  0.79832689  0.92835007     0.14000
C1813       C  0.74105008  0.61111424  0.71911542     0.85800
C1814       C  0.77146039  0.63227570  0.71336001    -0.54500
C1815       C  0.77418692  0.65763764  0.73723113     0.08700
C1816       C  0.74535458  0.65945145  0.76389882     0.19600
C1817       C  0.74086979  0.60190166  0.76153276    -0.55200
C1818       C  0.74347798  0.62735004  0.78552666     0.08800
C1819       C  0.71282834  0.63579400  0.71540374    -0.54700
C1820       C  0.71515274  0.66148816  0.73902410     0.09400
H1821       H  0.78882848  0.62769221  0.69142754     0.13900
H1822       H  0.74721098  0.67923589  0.78162856    -0.00400
H1823       H  0.73812793  0.57742544  0.77143396     0.14200
H1824       H  0.69293209  0.63403305  0.69601783     0.14000
C1825       C  0.64436998  0.72304676  0.72708827     0.85800
C1826       C  0.66485752  0.69286340  0.71882577    -0.54500
C1827       C  0.69163037  0.68932323  0.74081414     0.08700
C1828       C  0.69550589  0.71738316  0.76829970     0.19600
C1829       C  0.63755736  0.72177073  0.77001203    -0.55200
C1830       C  0.66461448  0.71845094  0.79208896     0.08800
C1831       C  0.66869488  0.75143026  0.72360700    -0.54700
C1832       C  0.69585994  0.74837898  0.74479588     0.09400
H1833       H  0.65832622  0.67591381  0.69708479     0.13900
H1834       H  0.71654385  0.71522238  0.78458528    -0.00400
H1835       H  0.61369762  0.72450571  0.78167562     0.14200
H1836       H  0.66484277  0.77308493  0.70774741     0.14000
C1837       C  0.85131089  0.70987866  0.71993207     0.85800
C1838       C  0.83085589  0.74100126  0.71784331    -0.54500
C1839       C  0.80482901  0.74138805  0.74084520     0.08700
C1840       C  0.80258828  0.71064046  0.76451812     0.19600
C1841       C  0.86065935  0.70832642  0.76232003    -0.55200
C1842       C  0.83476097  0.70818022  0.78615942     0.08800
C1843       C  0.82715665  0.68206777  0.71374552    -0.54700
C1844       C  0.80129098  0.68218134  0.73723752     0.09400
H1845       H  0.83757975  0.76180155  0.70138984     0.13900
H1846       H  0.78239854  0.71111281  0.78206490    -0.00400
H1847       H  0.88536865  0.70798669  0.77229979     0.14200
H1848       H  0.83063008  0.66399569  0.69237153     0.14000
C1849       C  0.75513145  0.82076862  0.73080285     0.85800
C1850       C  0.72458125  0.79998655  0.72430199    -0.54500
C1851       C  0.72286651  0.77286201  0.74596308     0.08700
C1852       C  0.75284572  0.76891686  0.77079789     0.19600
C1853       C  0.75665733  0.82665791  0.77386357    -0.55200
C1854       C  0.75560439  0.79916907  0.79530041     0.08800
C1855       C  0.78269362  0.79647791  0.72303832    -0.54700
C1856       C  0.78171252  0.76917924  0.74426488     0.09400
H1857       H  0.70655741  0.80603538  0.70340134     0.13900
H1858       H  0.75183596  0.74751370  0.78633453    -0.00400
H1859       H  0.75860629  0.85045247  0.78585466     0.14200
H1860       H  0.80017814  0.79942424  0.70095850     0.14000
O1861       O  0.97178096  0.68041448  0.52277848    -0.75100
O1862       O  0.53332172  0.68956707  0.60249141    -0.75200
O1863       O  0.96837423  0.68467942  0.59883898    -0.75200
O1864       O  0.53583238  0.68584508  0.52637590    -0.75300
O1865       O  0.53129042  0.73907650  0.52184320    -0.75200
O1866       O  0.96337559  0.73773090  0.59356247    -0.75200
O1867       O  0.52879402  0.74267419  0.59806463    -0.75200
O1868       O  0.96659758  0.73337243  0.51770607    -0.75200
Ni1869     Ni  0.00264037  0.68380192  0.56285608     1.25400
Ni1870     Ni  0.99719289  0.74060323  0.55734062     1.25400
C1871       C  0.95909224  0.70501805  0.50691756     0.87000
C1872       C  0.54136790  0.71775229  0.61334180     0.87000
C1873       C  0.95459758  0.71094764  0.60804565     0.87000
C1874       C  0.54430292  0.71266903  0.51176567     0.87200
O1875       O  0.72252905  0.98626644  0.51563093    -0.75100
O1876       O  0.72788147  0.92832891  0.60012464    -0.75200
O1877       O  0.72014932  0.99266799  0.59194498    -0.75200
O1878       O  0.73067056  0.92178658  0.52428539    -0.75300
O1879       O  0.78383177  0.92962849  0.52468844    -0.75200
O1880       O  0.77345228  0.99821554  0.59523111    -0.75200
O1881       O  0.78110480  0.93397639  0.60097161    -0.75200
O1882       O  0.77560851  0.99419161  0.51895205    -0.75200
Ni1883     Ni  0.72341749  0.95703184  0.55785311     1.25400
Ni1884     Ni  0.78037316  0.96422647  0.55995930     1.25400
C1885       C  0.75076102  0.49933205  0.50648091     0.87000
C1886       C  0.75540948  0.92146068  0.61459343     0.87000
C1887       C  0.74766263  0.50626790  0.60842189     0.87000
C1888       C  0.75896409  0.91428050  0.51308217     0.87200
C1889       C  0.78506548  0.86066315  0.68842688    -0.21000
C1890       C  0.75613349  0.85162570  0.70627965    -0.07600
C1891       C  0.72840408  0.87056136  0.69827504     0.13300
C1892       C  0.72903033  0.89278804  0.66833701    -0.21100
C1893       C  0.75714822  0.89880109  0.64747971    -0.07600
C1894       C  0.78593747  0.88322404  0.65896074     0.13300
C1895       C  0.81775466  0.88911208  0.63981645    -0.24400
H1896       H  0.80755348  0.84997708  0.69721598     0.14600
H1897       H  0.70720428  0.90589081  0.66160414     0.14600
C1898       C  0.69783508  0.86881637  0.72090748    -0.24400
H1899       H  0.83730900  0.87397526  0.65174553     0.04800
H1900       H  0.82515831  0.91452136  0.64340026     0.08000
H1901       H  0.81567302  0.88326678  0.60954900     0.08000
H1902       H  0.70017658  0.85377217  0.74642337     0.08000
H1903       H  0.67786854  0.85945363  0.70319754     0.08000
H1904       H  0.69137115  0.89324681  0.73056995     0.04800
C1905       C  0.87535617  0.72649423  0.65730448    -0.21000
C1906       C  0.87881968  0.70879362  0.69105624    -0.07600
C1907       C  0.90612926  0.68831062  0.69430999     0.13300
C1908       C  0.93080669  0.69032319  0.66743180    -0.21100
C1909       C  0.92818032  0.71034609  0.63581750    -0.07600
C1910       C  0.89965440  0.72805122  0.63026518     0.13300
C1911       C  0.89392805  0.74762390  0.59510642    -0.24400
H1912       H  0.85305039  0.73868539  0.65095051     0.14600
H1913       H  0.95206742  0.67548324  0.67078640     0.14600
C1914       C  0.90971682  0.66268206  0.72403011    -0.24400
H1915       H  0.91135660  0.76780165  0.59367773     0.04800
H1916       H  0.86938059  0.75816982  0.59431987     0.08000
H1917       H  0.89656802  0.73219066  0.57000677     0.08000
H1918       H  0.88715196  0.65752000  0.73923480     0.08000
H1919       H  0.92893895  0.66964788  0.74419211     0.08000
H1920       H  0.91662728  0.63970677  0.71065475     0.04800
C1921       C  0.56672580  0.69852726  0.67281108    -0.21000
C1922       C  0.56563769  0.72141297  0.64385800    -0.07600
C1923       C  0.58844571  0.74652034  0.64387957     0.13300
C1924       C  0.61212423  0.74753672  0.67202612    -0.21100
C1925       C  0.61434546  0.72417632  0.70094449    -0.07600
C1926       C  0.59031830  0.69956872  0.70139412     0.13300
C1927       C  0.58905947  0.67375098  0.73130236    -0.24400
H1928       H  0.54887426  0.67949903  0.67299738     0.14600
H1929       H  0.62951893  0.76637769  0.66925203     0.14600
C1930       C  0.58936871  0.77151859  0.61303707    -0.24400
H1931       H  0.56960928  0.65604257  0.72567571     0.04800
H1932       H  0.58375197  0.68439206  0.75894658     0.06000
H1933       H  0.61187968  0.66011928  0.73275401     0.08000
H1934       H  0.56724599  0.78638044  0.61378209     0.08000
H1935       H  0.59141891  0.75964298  0.58533244     0.08000
H1936       H  0.61019911  0.78810312  0.61602027     0.04800
C1937       C  0.76827318  0.53542734  0.66438455    -0.21000
C1938       C  0.74403253  0.53200232  0.63713582    -0.07600
C1939       C  0.71731809  0.55291137  0.63828566     0.13300
C1940       C  0.71627129  0.57726583  0.66550491    -0.21100
C1941       C  0.74112728  0.58179094  0.69234150    -0.07600
C1942       C  0.76706392  0.55925758  0.69222675     0.13300
C1943       C  0.79381555  0.55928053  0.72128656    -0.24400
H1944       H  0.78249370  0.01480193  0.66535050     0.14600
H1945       H  0.69550854  0.59254880  0.66493041     0.14600
C1946       C  0.69011689  0.55052543  0.61017606    -0.24400
H1947       H  0.81154965  0.53989107  0.71619621     0.04800
H1948       H  0.78399157  0.55487579  0.74963288     0.08000
H1949       H  0.80758269  0.58200680  0.72094260     0.08000
H1950       H  0.67725415  0.52735045  0.61372279     0.08000
H1951       H  0.69975707  0.55245562  0.58125107     0.08000
H1952       H  0.67211061  0.56992120  0.61377722     0.04800
C1953       C  0.77577074  0.86855660  0.92558573    -0.21000
C1954       C  0.76346179  0.83796538  0.93499574    -0.07600
C1955       C  0.75616325  0.83192610  0.97355984     0.13300
C1956       C  0.75491875  0.85762638  0.99875224    -0.21100
C1957       C  0.76500978  0.88835316  0.98835131    -0.07600
C1958       C  0.77765487  0.89338046  0.95215319     0.13300
C1959       C  0.79308335  0.92485887  0.94149174    -0.24400
H1960       H  0.78498966  0.87311407  0.89780559     0.14600
H1961       H  0.74327394  0.85322020  0.52558178     0.14600
C1962       C  0.75026412  0.79900063  0.99016429    -0.24400
H1963       H  0.80098449  0.92512549  0.91178050     0.04800
H1964       H  0.81459940  0.92908021  0.95943503     0.08000
H1965       H  0.77587482  0.94476716  0.94547729     0.08000
H1966       H  0.75508162  0.77900073  0.97082950     0.08000
H1967       H  0.72499789  0.79720338  0.00005140     0.08000
H1968       H  0.76274547  0.79479064  0.51499945     0.04800
C1969       C  0.89487672  0.67221641  0.93899546    -0.21000
C1970       C  0.88788619  0.70000637  0.91760979    -0.07600
C1971       C  0.90928481  0.72658293  0.92136894     0.13300
C1972       C  0.93235135  0.72651323  0.95040771    -0.21100
C1973       C  0.93607453  0.70022438  0.97487166    -0.07600
C1974       C  0.91801948  0.67208549  0.96780127     0.13300
C1975       C  0.91757130  0.64575393  0.49942633    -0.24400
H1976       H  0.88260583  0.64995597  0.93366903     0.14600
H1977       H  0.94765094  0.74738428  0.95408213     0.14600
C1978       C  0.90894436  0.75496738  0.89474402    -0.24400
H1979       H  0.94137715  0.63386236  0.49731809     0.04800
H1980       H  0.89893863  0.62721553  0.49370808     0.08000
H1981       H  0.91376038  0.65446948  0.52844942     0.08000
H1982       H  0.88610127  0.76845102  0.89604417     0.08000
H1983       H  0.91305601  0.74678181  0.86565063     0.08000
H1984       H  0.92845523  0.77234283  0.90141714     0.04800
C1985       C  0.58881406  0.72148399  0.91961882    -0.21000
C1986       C  0.62115472  0.71581145  0.93036859    -0.07600
C1987       C  0.62774843  0.71094646  0.96950712     0.13300
C1988       C  0.60223968  0.70967159  0.99514014    -0.21100
C1989       C  0.57047834  0.71470181  0.98378566    -0.07600
C1990       C  0.56362256  0.72123647  0.94583130     0.13300
C1991       C  0.52953448  0.72750267  0.93291767    -0.24400
H1992       H  0.58260301  0.72670783  0.89090960     0.14600
H1993       H  0.60699744  0.70764321  0.52395202     0.14600
C1994       C  0.66104160  0.70714207  0.98643505    -0.24400
H1995       H  0.52810294  0.73171054  0.90217404     0.04800
H1996       H  0.51995306  0.74908345  0.94712882     0.08000
H1997       H  0.51405504  0.70654317  0.93981973     0.08000
H1998       H  0.66478836  0.72577356  0.00820533     0.08000
H1999       H  0.68113571  0.70959638  0.96656092     0.08000
H2000       H  0.66213173  0.68422041  0.50084665     0.04800
C2001       C  0.75520829  0.55682767  0.98638278    -0.21000
C2002       C  0.74771105  0.52557158  0.97553263    -0.07600
C2003       C  0.73804254  0.52001468  0.93799488     0.13300
C2004       C  0.73791965  0.54569289  0.91192954    -0.21100
C2005       C  0.74563731  0.57741408  0.92259170    -0.07600
C2006       C  0.75296723  0.58284841  0.96141117     0.13300
C2007       C  0.75858235  0.61547027  0.97879963    -0.24400
H2008       H  0.76169184  0.56049833  0.51567765     0.14600
H2009       H  0.73083762  0.54056812  0.88340777     0.14600
C2010       C  0.72320264  0.98630882  0.92616814    -0.24400
H2011       H  0.74222028  0.61841326  0.00308848     0.04800
H2012       H  0.75392148  0.63609309  0.96011311     0.08000
H2013       H  0.78385218  0.61711944  0.98902427     0.08000
H2014       H  0.69781055  0.98803525  0.91642694     0.08000
H2015       H  0.72418983  0.96800349  0.94875128     0.08000
H2016       H  0.73830282  0.97797363  0.90253672     0.04800
loop_ 
_geom_bond_atom_site_label_1 
_geom_bond_atom_site_label_2 
_geom_bond_distance 
_geom_bond_site_symmetry_2 
_ccdc_geom_bond_type 
C1            C2   1.549       .  S
C1            C7   1.542       .  S
C1            C5   1.570       .  S
C1          C241   1.547       .  S
C2            H9   1.085       .  S
C2            C3   1.365       .  D
C3            C4   1.534       .  S
C3           C20   1.517       .  S
C4            C8   1.533       .  S
C4            C6   1.542       .  S
C4           H10   1.048       .  S
C5           H11   1.082       .  S
C5            C6   1.383       .  D
C6           C54   1.526       .  S
C7           H12   1.083       .  S
C7            C8   1.359       .  D
C8           C27   1.510       .  S
C13          C14   1.549       .  S
C13          C19   1.548       .  S
C13          C17   1.568       .  S
C13         C222   1.542       .  S
C14          H21   1.085       .  S
C14          C15   1.364       .  D
C15          C16   1.538       .  S
C15          C44   1.516       .  S
C16          C20   1.539       .  S
C16          C18   1.542       .  S
C16          H22   1.049       .  S
C17          H23   1.079       .  S
C17          C18   1.374       .  D
C18          C66   1.524       .  S
C19          H24   1.085       .  S
C19          C20   1.362       .  D
C25          C26   1.557       .  S
C25          C31   1.548       .  S
C25          C29   1.557       .  S
C25         C206   1.549       .  S
C26          H33   1.076       .  S
C26          C27   1.362       .  D
C27          C28   1.530       .  S
C28          C32   1.537       .  S
C28          C30   1.543       .  S
C28          H34   1.050       .  S
C29          H35   1.082       .  S
C29          C30   1.373       .  D
C30          C78   1.519       .  S
C31          H36   1.085       .  S
C31          C32   1.363       .  D
C32          C39   1.515       .  S
C37          C38   1.546       .  S
C37          C43   1.553       .  S
C37          C41   1.567       .  S
C37         C190   1.542       .  S
C38          H45   1.085       .  S
C38          C39   1.364       .  D
C39          C40   1.534       .  S
C40          C44   1.535       .  S
C40          C42   1.540       .  S
C40          H46   1.043       .  S
C41          H47   1.082       .  S
C41          C42   1.374       .  D
C42          C90   1.524       .  S
C43          H48   1.084       .  S
C43          C44   1.365       .  D
C49          C50   1.554       .  S
C49          C55   1.563       .  S
C49          C53   1.558       .  S
C49         C177   1.553       .  S
C50          H57   1.084       .  S
C50          C51   1.366       .  D
C51          C52   1.534       .  S
C51          C80   1.520       .  S
C52          C56   1.533       .  S
C52          C54   1.543       .  S
C52          H58   1.043       .  S
C53          H59   1.084       .  S
C53          C54   1.369       .  D
C55          H60   1.077       .  S
C55          C56   1.368       .  D
C56          C63   1.518       .  S
C61          C62   1.549       .  S
C61          C67   1.559       .  S
C61          C65   1.558       .  S
C61         C161   1.551       .  S
C62          H69   1.084       .  S
C62          C63   1.364       .  D
C63          C64   1.539       .  S
C64          C68   1.539       .  S
C64          C66   1.540       .  S
C64          H70   1.050       .  S
C65          H71   1.083       .  S
C65          C66   1.373       .  D
C67          H72   1.074       .  S
C67          C68   1.361       .  D
C68          C87   1.517       .  S
C73          C74   1.553       .  S
C73          C79   1.546       .  S
C73          C77   1.560       .  S
C73         C142   1.543       .  S
C74          H81   1.082       .  S
C74          C75   1.360       .  D
C75          C76   1.534       .  S
C75          C92   1.512       .  S
C76          C80   1.540       .  S
C76          C78   1.542       .  S
C76          H82   1.049       .  S
C77          H83   1.084       .  S
C77          C78   1.375       .  D
C79          H84   1.085       .  S
C79          C80   1.365       .  D
C85          C86   1.553       .  S
C85          C91   1.556       .  S
C85          C89   1.556       .  S
C85         C126   1.553       .  S
C86          H93   1.083       .  S
C86          C87   1.370       .  D
C87          C88   1.532       .  S
C88          C92   1.530       .  S
C88          C90   1.542       .  S
C88          H94   1.049       .  S
C89          H95   1.085       .  S
C89          C90   1.374       .  D
C91          H96   1.079       .  S
C91          C92   1.363       .  D
O97        Ni105   1.921       .  S
O97         C107   1.282       .  A
O98       Ni1113   1.916       .  S
O98         C108   1.281       .  A
O99        Ni105   1.920       .  S
O99         C109   1.281       .  A
O100      Ni1113   1.926       .  S
O100        C110   1.282       .  A
O101      Ni1114   1.915   1_455  S
O101        C110   1.279       .  A
O102       Ni106   1.919       .  S
O102        C109   1.281       .  A
O103      Ni1114   1.922   1_455  S
O103        C108   1.282       .  A
O104       Ni106   1.920       .  S
O104        C107   1.282       .  A
Ni105      O1106   1.917       .  S
Ni105      O1108   1.919       .  S
Ni105      Ni106   2.386       .  S
Ni106      O1109   1.918       .  S
Ni106      O1111   1.920       .  S
C107        C461   1.493   1_554  S
C108        C158   1.490       .  S
C109        C145   1.482       .  S
C110        C477   1.476   1_554  S
O111       Ni119   1.927       .  S
O111        C625   1.281       .  A
O112       Ni119   1.926       .  S
O112        C122   1.283       .  A
O113       Ni119   1.927       .  S
O113        C627   1.283       .  A
O114       Ni119   1.922       .  S
O114        C124   1.282       .  A
O115       Ni120   1.921       .  S
O115        C124   1.280       .  A
O116       Ni120   1.917       .  S
O116        C627   1.281       .  A
O117       Ni120   1.929       .  S
O117        C122   1.284       .  A
O118       Ni120   1.929       .  S
O118        C625   1.284       .  A
Ni119      Ni120   2.384       .  S
C121        O615   1.283   1_545  A
C121        O622   1.284   1_545  A
C121        C490   1.490   1_554  S
C122        C129   1.503       .  S
C123        O617   1.283   1_545  A
C123        O620   1.282   1_545  A
C123        C174   1.496       .  S
C124        C445   1.478   1_554  S
C125        C126   1.413       .  A
C125        C130   1.407       .  A
C125        H132   1.079       .  S
C126        C127   1.424       .  A
C127        C134   1.509       .  S
C127        C128   1.411       .  A
C128        C129   1.409       .  A
C128        H133   1.084       .  S
C129        C130   1.417       .  A
C130        C131   1.509       .  S
C131        H135   1.111       .  S
C131        H136   1.110       .  S
C131        H137   1.110       .  S
C134        H138   1.106       .  S
C134        H139   1.110       .  S
C134        H140   1.111       .  S
C141        C142   1.416       .  A
C141        C146   1.400       .  A
C141        H148   1.080       .  S
C142        C143   1.424       .  A
C143        C150   1.508       .  S
C143        C144   1.409       .  A
C144        C145   1.404       .  A
C144        H149   1.085       .  S
C145        C146   1.409       .  A
C146        C147   1.510       .  S
C147        H151   1.109       .  S
C147        H152   1.111       .  S
C147        H153   1.111       .  S
C150        H154   1.105       .  S
C150        H155   1.110       .  S
C150        H156   1.111       .  S
C157        C158   1.404       .  A
C157        C162   1.408       .  A
C157        H164   1.084       .  S
C158        C159   1.412       .  A
C159        C166   1.510       .  S
C159        C160   1.404       .  A
C160        C161   1.416       .  A
C160        H165   1.071       .  S
C161        C162   1.428       .  A
C162        C163   1.514       .  S
C163        H167   1.111       .  S
C163        H168   1.107       .  S
C163        H169   1.105       .  S
C166        H170   1.110       .  S
C166        H171   1.111       .  S
C166        H172   1.111       .  S
C173        C174   1.404       .  A
C173        C178   1.407       .  A
C173        H684   1.084       .  S
C174        C175   1.414       .  A
C175        C182   1.509       .  S
C175        C176   1.410       .  A
C176        C177   1.417       .  A
C176        H181   1.074       .  S
C177        C178   1.428       .  A
C178        C179   1.515       .  S
C179        H183   1.111       .  S
C179        H184   1.107       .  S
C179        H185   1.104       .  S
H180        C677   1.084       .  S
C182        H186   1.110       .  S
C182        H187   1.110       .  S
C182        H188   1.111       .  S
C189        C190   1.413       .  A
C189        C194   1.408       .  A
C189        H196   1.080       .  S
C190        C191   1.430       .  A
C191        C198   1.511       .  S
C191        C192   1.404       .  A
C192        C193   1.397       .  A
C192        H449   1.085       .  S
C193        C376   1.479       .  S
C193        C194   1.410       .  A
C194        C195   1.506       .  S
C195        H199   1.111       .  S
C195        H200   1.110       .  S
C195        H201   1.106       .  S
H197        C444   1.085   1_554  S
C198        H202   1.104       .  S
C198        H203   1.110       .  S
C198        H456   1.111       .  S
H204        C450   1.111   1_554  S
C205        C206   1.417       .  A
C205        C210   1.400       .  A
C205        H212   1.072       .  S
C206        C207   1.429       .  A
C207        C214   1.512       .  S
C207        C208   1.409       .  A
C208        C209   1.402       .  A
C208        H213   1.084       .  S
C209        C359   1.483       .  S
C209        C210   1.408       .  A
C210        C463   1.511       .  S
C211        C462   1.510       .  S
C211        H215   1.110       .  S
C211        H216   1.111       .  S
C211        H217   1.111   1_556  S
C214        H218   1.107       .  S
C214        H219   1.106       .  S
C214        H220   1.111       .  S
C221        C222   1.415       .  A
C221        C226   1.407       .  A
C221        H228   1.076       .  S
C222        C223   1.435       .  A
C223        C230   1.514       .  S
C223        C224   1.402       .  A
C224        C225   1.392       .  A
C224        H481   1.086       .  S
C225        C362   1.471       .  S
C225        C226   1.407       .  A
C226        C227   1.508       .  S
C227        H231   1.111       .  S
C227        H232   1.110       .  S
C227        H233   1.111       .  S
H229        C476   1.085   1_554  S
C230        H234   1.111       .  S
C230        H235   1.101       .  S
C230        H488   1.111       .  S
H236        C482   1.111       .  S
C237        C238   1.394       .  A
C237        C242   1.401       .  A
C237        H496   1.086       .  S
C238        C373   1.484       .  S
C238        C239   1.416       .  A
C239        C750   1.506   1_545  S
C239        C240   1.414       .  A
C240        C241   1.412       .  A
C240        H245   1.080       .  S
C241        C242   1.435       .  A
C242        C243   1.514       .  S
C243        H247   1.111       .  S
C243        H248   1.102       .  S
C243        H249   1.111       .  S
H244        C489   1.086   1_554  S
C246        C743   1.505       .  S
C246        H250   1.110       .  S
C246        H251   1.107       .  S
C246        H252   1.110       .  S
C253        C254   1.547       .  S
C253        C259   1.546       .  S
C253        C257   1.572       .  S
C253        C493   1.550       .  S
C254        H261   1.084       .  S
C254        C255   1.365       .  D
C255        C256   1.533       .  S
C255        C272   1.515       .  S
C256        C260   1.536       .  S
C256        C258   1.540       .  S
C256        H262   1.048       .  S
C257        H263   1.082       .  S
C257        C258   1.384       .  D
C258        C306   1.527       .  S
C259        H264   1.084       .  S
C259        C260   1.361       .  D
C260        C279   1.515       .  S
C265        C266   1.549       .  S
C265        C271   1.547       .  S
C265        C269   1.568       .  S
C265        C474   1.544       .  S
C266        H273   1.085       .  S
C266        C267   1.365       .  D
C267        C268   1.537       .  S
C267        C296   1.516       .  S
C268        C272   1.539       .  S
C268        C270   1.543       .  S
C268        H274   1.050       .  S
C269        H275   1.080       .  S
C269        C270   1.375       .  D
C270        C318   1.525       .  S
C271        H276   1.084       .  S
C271        C272   1.361       .  D
C277        C278   1.561       .  S
C277        C283   1.549       .  S
C277        C281   1.556       .  S
C277        C458   1.551       .  S
C278        H285   1.075       .  S
C278        C279   1.365       .  D
C279        C280   1.531       .  S
C280        C284   1.536       .  S
C280        C282   1.541       .  S
C280        H286   1.049       .  S
C281        H287   1.084       .  S
C281        C282   1.372       .  D
C282        C330   1.521       .  S
C283        H288   1.084       .  S
C283        C284   1.364       .  D
C284        C291   1.515       .  S
C289        C290   1.544       .  S
C289        C295   1.553       .  S
C289        C293   1.566       .  S
C289        C442   1.539       .  S
C290        H297   1.085       .  S
C290        C291   1.363       .  D
C291        C292   1.536       .  S
C292        C296   1.536       .  S
C292        C294   1.542       .  S
C292        H298   1.045       .  S
C293        H299   1.083       .  S
C293        C294   1.374       .  D
C294        C342   1.524       .  S
C295        H300   1.084       .  S
C295        C296   1.364       .  D
C301        C302   1.551       .  S
C301        C307   1.564       .  S
C301        C305   1.558       .  S
C301        C429   1.554       .  S
C302        H309   1.084       .  S
C302        C303   1.365       .  D
C303        C304   1.532       .  S
C303        C332   1.516       .  S
C304        C308   1.533       .  S
C304        C306   1.545       .  S
C304        H310   1.045       .  S
C305        H311   1.083       .  S
C305        C306   1.369       .  D
C307        H312   1.077       .  S
C307        C308   1.369       .  D
C308        C315   1.519       .  S
C313        C314   1.547       .  S
C313        C319   1.561       .  S
C313        C317   1.559       .  S
C313        C413   1.551       .  S
C314        H321   1.084       .  S
C314        C315   1.361       .  D
C315        C316   1.538       .  S
C316        C320   1.539       .  S
C316        C318   1.541       .  S
C316        H322   1.049       .  S
C317        H323   1.083       .  S
C317        C318   1.374       .  D
C319        H324   1.077       .  S
C319        C320   1.365       .  D
C320        C339   1.518       .  S
C325        C326   1.552       .  S
C325        C331   1.544       .  S
C325        C329   1.561       .  S
C325        C394   1.540       .  S
C326        H333   1.081       .  S
C326        C327   1.358       .  D
C327        C328   1.536       .  S
C327        C344   1.512       .  S
C328        C332   1.539       .  S
C328        C330   1.544       .  S
C328        H334   1.050       .  S
C329        H335   1.084       .  S
C329        C330   1.376       .  D
C331        H336   1.085       .  S
C331        C332   1.363       .  D
C337        C338   1.554       .  S
C337        C343   1.557       .  S
C337        C341   1.556       .  S
C337        C378   1.553       .  S
C338        H345   1.083       .  S
C338        C339   1.369       .  D
C339        C340   1.535       .  S
C340        C344   1.529       .  S
C340        C342   1.541       .  S
C340        H346   1.048       .  S
C341        H347   1.085       .  S
C341        C342   1.374       .  D
C343        H348   1.079       .  S
C343        C344   1.365       .  D
O349       Ni357   1.921       .  S
O349        C359   1.282       .  A
O350      Ni1365   1.923       .  S
O350        C360   1.283       .  A
O351       Ni357   1.916       .  S
O351        C361   1.280       .  A
O352      Ni1365   1.917       .  S
O352        C362   1.280       .  A
O353      Ni1366   1.918   1_455  S
O353        C362   1.280       .  A
O354       Ni358   1.916       .  S
O354        C361   1.281       .  A
O355      Ni1366   1.915   1_455  S
O355        C360   1.280       .  A
O356       Ni358   1.914       .  S
O356        C359   1.280       .  A
Ni357      O1358   1.922       .  S
Ni357      O1360   1.917       .  S
Ni357      Ni358   2.387       .  S
Ni358      O1361   1.916       .  S
Ni358      O1363   1.918       .  S
C360        C410   1.486       .  S
C361        C397   1.480       .  S
O363       Ni371   1.933       .  S
O363        C877   1.283       .  A
O364       Ni371   1.928       .  S
O364        C374   1.284       .  A
O365       Ni371   1.922       .  S
O365        C879   1.282       .  A
O366       Ni371   1.919       .  S
O366        C376   1.281       .  A
O367       Ni372   1.925       .  S
O367        C376   1.281       .  A
O368       Ni372   1.922       .  S
O368        C879   1.282       .  A
O369       Ni372   1.926       .  S
O369        C374   1.283       .  A
O370       Ni372   1.926       .  S
O370        C877   1.283       .  A
Ni371      Ni372   2.384       .  S
C373        O867   1.282   1_545  A
C373        O874   1.282   1_545  A
C374        C381   1.502       .  S
C375        O869   1.282   1_545  A
C375        O872   1.282   1_545  A
C375        C426   1.491       .  S
C377        C378   1.413       .  A
C377        C382   1.408       .  A
C377        H384   1.079       .  S
C378        C379   1.423       .  A
C379        C386   1.508       .  S
C379        C380   1.410       .  A
C380        C381   1.408       .  A
C380        H385   1.084       .  S
C381        C382   1.418       .  A
C382        C383   1.509       .  S
C383        H387   1.111       .  S
C383        H388   1.110       .  S
C383        H389   1.110       .  S
C386        H390   1.106       .  S
C386        H391   1.110       .  S
C386        H392   1.111       .  S
C393        C394   1.415       .  A
C393        C398   1.398       .  A
C393        H400   1.079       .  S
C394        C395   1.423       .  A
C395        C402   1.508       .  S
C395        C396   1.408       .  A
C396        C397   1.404       .  A
C396        H401   1.085       .  S
C397        C398   1.409       .  A
C398        C399   1.511       .  S
C399        H403   1.109       .  S
C399        H404   1.111       .  S
C399        H405   1.111       .  S
C402        H406   1.104       .  S
C402        H407   1.110       .  S
C402        H408   1.111       .  S
C409        C410   1.400       .  A
C409        C414   1.409       .  A
C409        H416   1.084       .  S
C410        C411   1.411       .  A
C411        C418   1.511       .  S
C411        C412   1.404       .  A
C412        C413   1.416       .  A
C412        H417   1.072       .  S
C413        C414   1.431       .  A
C414        C415   1.513       .  S
C415        H419   1.111       .  S
C415        H420   1.106       .  S
C415        H421   1.106       .  S
C418        H422   1.109       .  S
C418        H423   1.111       .  S
C418        H424   1.111       .  S
C425        C426   1.401       .  A
C425        C430   1.408       .  A
C425        H936   1.084       .  S
C426        C427   1.412       .  A
C427        C434   1.509       .  S
C427        C428   1.409       .  A
C428        C429   1.417       .  A
C428        H433   1.073       .  S
C429        C430   1.431       .  A
C430        C431   1.515       .  S
C431        H435   1.111       .  S
C431        H436   1.106       .  S
C431        H437   1.106       .  S
H432        C929   1.084       .  S
C434        H438   1.109       .  S
C434        H439   1.111       .  S
C434        H440   1.111       .  S
C441        C442   1.412       .  A
C441        C446   1.408       .  A
C441        H448   1.080       .  S
C442        C443   1.429       .  A
C443        C450   1.511       .  S
C443        C444   1.403       .  A
C444        C445   1.396       .  A
C445        C446   1.411       .  A
C446        C447   1.506       .  S
C447        H451   1.111       .  S
C447        H452   1.110       .  S
C447        H453   1.106       .  S
C450        H454   1.104       .  S
C450        H455   1.110       .  S
C457        C458   1.414       .  A
C457        C462   1.404       .  A
C457        H464   1.073       .  S
C458        C459   1.428       .  A
C459        C466   1.513       .  S
C459        C460   1.409       .  A
C460        C461   1.404       .  A
C460        H465   1.084       .  S
C461        C462   1.414       .  A
C463        H467   1.109       .  S
C463        H468   1.111       .  S
C463        H469   1.111       .  S
C466        H470   1.105       .  S
C466        H471   1.107       .  S
C466        H472   1.111       .  S
C473        C474   1.414       .  A
C473        C478   1.409       .  A
C473        H480   1.077       .  S
C474        C475   1.435       .  A
C475        C482   1.514       .  S
C475        C476   1.403       .  A
C476        C477   1.393       .  A
C477        C478   1.409       .  A
C478        C479   1.508       .  S
C479        H483   1.111       .  S
C479        H484   1.110       .  S
C479        H485   1.111       .  S
C482        H486   1.111   1_556  S
C482        H487   1.102       .  S
C489        C490   1.395       .  A
C489        C494   1.403       .  A
C490        C491   1.417       .  A
C491       C1002   1.505   1_545  S
C491        C492   1.416       .  A
C492        C493   1.413       .  A
C492        H497   1.080       .  S
C493        C494   1.435       .  A
C494        C495   1.514       .  S
C495        H499   1.111   1_556  S
C495        H500   1.102       .  S
C495        H501   1.111       .  S
C498        C995   1.506       .  S
C498        H502   1.110       .  S
C498        H503   1.107       .  S
C498        H504   1.110       .  S
C505        C506   1.548       .  S
C505        C511   1.543       .  S
C505        C509   1.571       .  S
C505        C745   1.548       .  S
C506        H513   1.085       .  S
C506        C507   1.364       .  D
C507        C508   1.534       .  S
C507        C524   1.515       .  S
C508        C512   1.533       .  S
C508        C510   1.542       .  S
C508        H514   1.049       .  S
C509        H515   1.082       .  S
C509        C510   1.384       .  D
C510        C558   1.527       .  S
C511        H516   1.083       .  S
C511        C512   1.360       .  D
C512        C531   1.512       .  S
C517        C518   1.547       .  S
C517        C523   1.548       .  S
C517        C521   1.568       .  S
C517        C726   1.542       .  S
C518        H525   1.085       .  S
C518        C519   1.363       .  D
C519        C520   1.538       .  S
C519        C548   1.515       .  S
C520        C524   1.538       .  S
C520        C522   1.541       .  S
C520        H526   1.049       .  S
C521        H527   1.080       .  S
C521        C522   1.375       .  D
C522        C570   1.524       .  S
C523        H528   1.084       .  S
C523        C524   1.362       .  D
C529        C530   1.558       .  S
C529        C535   1.550       .  S
C529        C533   1.560       .  S
C529        C710   1.554       .  S
C530        H537   1.073       .  S
C530        C531   1.361       .  D
C531        C532   1.531       .  S
C532        C536   1.536       .  S
C532        C534   1.542       .  S
C532        H538   1.050       .  S
C533        H539   1.083       .  S
C533        C534   1.375       .  D
C534        C582   1.523       .  S
C535        H540   1.085       .  S
C535        C536   1.363       .  D
C536        C543   1.516       .  S
C541        C542   1.546       .  S
C541        C547   1.553       .  S
C541        C545   1.566       .  S
C541        C694   1.541       .  S
C542        H549   1.085       .  S
C542        C543   1.364       .  D
C543        C544   1.535       .  S
C544        C548   1.533       .  S
C544        C546   1.541       .  S
C544        H550   1.044       .  S
C545        H551   1.083       .  S
C545        C546   1.373       .  D
C546        C594   1.523       .  S
C547        H552   1.084       .  S
C547        C548   1.365       .  D
C553        C554   1.551       .  S
C553        C559   1.563       .  S
C553        C557   1.559       .  S
C553        C681   1.553       .  S
C554        H561   1.084       .  S
C554        C555   1.365       .  D
C555        C556   1.532       .  S
C555        C584   1.517       .  S
C556        C560   1.530       .  S
C556        C558   1.544       .  S
C556        H562   1.043       .  S
C557        H563   1.083       .  S
C557        C558   1.370       .  D
C559        H564   1.077       .  S
C559        C560   1.368       .  D
C560        C567   1.516       .  S
C565        C566   1.546       .  S
C565        C571   1.561       .  S
C565        C569   1.558       .  S
C565        C665   1.548       .  S
C566        H573   1.084       .  S
C566        C567   1.361       .  D
C567        C568   1.538       .  S
C568        C572   1.539       .  S
C568        C570   1.542       .  S
C568        H574   1.050       .  S
C569        H575   1.083       .  S
C569        C570   1.374       .  D
C571        H576   1.076       .  S
C571        C572   1.363       .  D
C572        C591   1.518       .  S
C577        C578   1.554       .  S
C577        C583   1.547       .  S
C577        C581   1.560       .  S
C577        C646   1.545       .  S
C578        H585   1.079       .  S
C578        C579   1.358       .  D
C579        C580   1.535       .  S
C579        C596   1.512       .  S
C580        C584   1.538       .  S
C580        C582   1.544       .  S
C580        H586   1.049       .  S
C581        H587   1.082       .  S
C581        C582   1.376       .  D
C583        H588   1.085       .  S
C583        C584   1.363       .  D
C589        C590   1.554       .  S
C589        C595   1.556       .  S
C589        C593   1.556       .  S
C589        C630   1.554       .  S
C590        H597   1.083       .  S
C590        C591   1.369       .  D
C591        C592   1.534       .  S
C592        C596   1.528       .  S
C592        C594   1.541       .  S
C592        H598   1.048       .  S
C593        H599   1.085       .  S
C593        C594   1.375       .  D
C595        H600   1.079       .  S
C595        C596   1.365       .  D
O601       Ni609   1.914       .  S
O601        C611   1.280       .  A
O602      Ni1617   1.919       .  S
O602        C612   1.282       .  A
O603       Ni609   1.923       .  S
O603        C613   1.282       .  A
O604      Ni1617   1.918       .  S
O604        C614   1.280       .  A
O605      Ni1618   1.915   1_455  S
O605        C614   1.279       .  A
O606       Ni610   1.911       .  S
O606        C613   1.280       .  A
O607      Ni1618   1.914   1_455  S
O607        C612   1.280       .  A
O608       Ni610   1.919       .  S
O608        C611   1.282       .  A
Ni609      O1610   1.914       .  S
Ni609      O1612   1.922       .  S
Ni609      Ni610   2.387       .  S
Ni610      O1613   1.912       .  S
Ni610      O1615   1.920       .  S
C611        C965   1.487   1_554  S
C612        C662   1.484       .  S
C613        C649   1.484       .  S
C614        C981   1.469   1_554  S
O615       Ni623   1.934       .  S
O616       Ni623   1.928       .  S
O616        C626   1.283       .  A
O617       Ni623   1.928       .  S
O618       Ni623   1.924       .  S
O618        C628   1.282       .  A
O619       Ni624   1.923       .  S
O619        C628   1.280       .  A
O620       Ni624   1.919       .  S
O621       Ni624   1.930       .  S
O621        C626   1.284       .  A
O622       Ni624   1.929       .  S
Ni623      Ni624   2.383       .  S
C625        C994   1.485   1_554  S
C626        C633   1.504       .  S
C627        C678   1.488       .  S
C628        C949   1.480   1_554  S
C629        C630   1.413       .  A
C629        C634   1.408       .  A
C629        H636   1.079       .  S
C630        C631   1.423       .  A
C631        C638   1.508       .  S
C631        C632   1.411       .  A
C632        C633   1.409       .  A
C632        H637   1.084       .  S
C633        C634   1.418       .  A
C634        C635   1.508       .  S
C635        H639   1.111       .  S
C635        H640   1.110       .  S
C635        H641   1.110       .  S
C638        H642   1.106       .  S
C638        H643   1.110       .  S
C638        H644   1.111       .  S
C645        C646   1.416       .  A
C645        C650   1.398       .  A
C645        H652   1.076       .  S
C646        C647   1.426       .  A
C647        C654   1.510       .  S
C647        C648   1.411       .  A
C648        C649   1.404       .  A
C648        H653   1.084       .  S
C649        C650   1.410       .  A
C650        C651   1.512       .  S
C651        H655   1.109       .  S
C651        H656   1.111       .  S
C651        H657   1.111       .  S
C654        H658   1.108       .  S
C654        H659   1.105       .  S
C654        H660   1.111       .  S
C661        C662   1.401       .  A
C661        C666   1.408       .  A
C661        H668   1.084       .  S
C662        C663   1.410       .  A
C663        C670   1.511       .  S
C663        C664   1.402       .  A
C664        C665   1.415       .  A
C664        H669   1.071       .  S
C665        C666   1.430       .  A
C666        C667   1.514       .  S
C667        H671   1.111       .  S
C667        H672   1.106       .  S
C667        H673   1.106       .  S
C670        H674   1.109       .  S
C670        H675   1.111       .  S
C670        H676   1.111       .  S
C677        C678   1.401       .  A
C677        C682   1.408       .  A
C678        C679   1.410       .  A
C679        C686   1.509       .  S
C679        C680   1.408       .  A
C680        C681   1.418       .  A
C680        H685   1.073       .  S
C681        C682   1.431       .  A
C682        C683   1.514       .  S
C683        H687   1.111       .  S
C683        H688   1.105       .  S
C683        H689   1.106       .  S
C686        H690   1.109       .  S
C686        H691   1.111       .  S
C686        H692   1.111       .  S
C693        C694   1.413       .  A
C693        C698   1.409       .  A
C693        H700   1.080       .  S
C694        C695   1.430       .  A
C695        C702   1.511       .  S
C695        C696   1.404       .  A
C696        C697   1.397       .  A
C696        H953   1.085       .  S
C697        C880   1.480       .  S
C697        C698   1.410       .  A
C698        C699   1.506       .  S
C699        H703   1.111       .  S
C699        H704   1.110       .  S
C699        H705   1.107       .  S
H701        C948   1.085   1_554  S
C702        H706   1.104       .  S
C702        H707   1.110       .  S
C702        H960   1.111       .  S
H708        C954   1.111   1_554  S
C709        C710   1.417       .  A
C709        C714   1.402       .  A
C709        H716   1.069       .  S
C710        C711   1.428       .  A
C711        C718   1.512       .  S
C711        C712   1.410       .  A
C712        C713   1.404       .  A
C712        H717   1.084       .  S
C713        C863   1.489       .  S
C713        C714   1.410       .  A
C714        C967   1.511       .  S
C715        C966   1.511   1_554  S
C715        H719   1.109   1_554  S
C715        H720   1.111   1_554  S
C715        H721   1.111       .  S
C718        H722   1.106       .  S
C718        H723   1.107       .  S
C718        H724   1.111       .  S
C725        C726   1.414       .  A
C725        C730   1.408       .  A
C725        H732   1.076       .  S
C726        C727   1.435       .  A
C727        C734   1.514       .  S
C727        C728   1.403       .  A
C728        C729   1.393       .  A
C728        H985   1.085       .  S
C729        C866   1.473       .  S
C729        C730   1.408       .  A
C730        C731   1.508       .  S
C731        H735   1.111       .  S
C731        H736   1.110       .  S
C731        H737   1.111       .  S
H733        C980   1.086   1_554  S
C734        H738   1.111       .  S
C734        H739   1.101       .  S
C734        H992   1.111       .  S
H740        C986   1.111   1_554  S
C741        C742   1.394       .  A
C741        C746   1.401       .  A
C741       H1000   1.086       .  S
C742        C877   1.487       .  S
C742        C743   1.416       .  A
C743        C744   1.415       .  A
C744        C745   1.413       .  A
C744        H749   1.080       .  S
C745        C746   1.435       .  A
C746        C747   1.515       .  S
C747        H751   1.111       .  S
C747        H752   1.102       .  S
C747        H753   1.111       .  S
H748        C993   1.086   1_554  S
C750        H754   1.110       .  S
C750        H755   1.107       .  S
C750        H756   1.110       .  S
C757        C758   1.549       .  S
C757        C763   1.542       .  S
C757        C761   1.571       .  S
C757        C997   1.547       .  S
C758        H765   1.085       .  S
C758        C759   1.366       .  D
C759        C760   1.534       .  S
C759        C776   1.516       .  S
C760        C764   1.534       .  S
C760        C762   1.542       .  S
C760        H766   1.049       .  S
C761        H767   1.082       .  S
C761        C762   1.383       .  D
C762        C810   1.528       .  S
C763        H768   1.083       .  S
C763        C764   1.359       .  D
C764        C783   1.511       .  S
C769        C770   1.551       .  S
C769        C775   1.547       .  S
C769        C773   1.568       .  S
C769        C978   1.543       .  S
C770        H777   1.085       .  S
C770        C771   1.366       .  D
C771        C772   1.537       .  S
C771        C800   1.517       .  S
C772        C776   1.539       .  S
C772        C774   1.540       .  S
C772        H778   1.048       .  S
C773        H779   1.079       .  S
C773        C774   1.373       .  D
C774        C822   1.524       .  S
C775        H780   1.085       .  S
C775        C776   1.361       .  D
C781        C782   1.559       .  S
C781        C787   1.548       .  S
C781        C785   1.554       .  S
C781        C962   1.548       .  S
C782        H789   1.073       .  S
C782        C783   1.363       .  D
C783        C784   1.530       .  S
C784        C788   1.537       .  S
C784        C786   1.540       .  S
C784        H790   1.050       .  S
C785        H791   1.084       .  S
C785        C786   1.371       .  D
C786        C834   1.517       .  S
C787        H792   1.084       .  S
C787        C788   1.364       .  D
C788        C795   1.514       .  S
C793        C794   1.545       .  S
C793        C799   1.554       .  S
C793        C797   1.567       .  S
C793        C946   1.542       .  S
C794        H801   1.085       .  S
C794        C795   1.364       .  D
C795        C796   1.535       .  S
C796        C800   1.536       .  S
C796        C798   1.541       .  S
C796        H802   1.045       .  S
C797        H803   1.082       .  S
C797        C798   1.374       .  D
C798        C846   1.524       .  S
C799        H804   1.084       .  S
C799        C800   1.365       .  D
C805        C806   1.550       .  S
C805        C811   1.564       .  S
C805        C809   1.560       .  S
C805        C933   1.552       .  S
C806        H813   1.085       .  S
C806        C807   1.363       .  D
C807        C808   1.536       .  S
C807        C836   1.517       .  S
C808        C812   1.535       .  S
C808        C810   1.544       .  S
C808        H814   1.045       .  S
C809        H815   1.084       .  S
C809        C810   1.371       .  D
C811        H816   1.076       .  S
C811        C812   1.367       .  D
C812        C819   1.519       .  S
C817        C818   1.550       .  S
C817        C823   1.561       .  S
C817        C821   1.557       .  S
C817        C917   1.553       .  S
C818        H825   1.084       .  S
C818        C819   1.365       .  D
C819        C820   1.536       .  S
C820        C824   1.538       .  S
C820        C822   1.541       .  S
C820        H826   1.050       .  S
C821        H827   1.083       .  S
C821        C822   1.373       .  D
C823        H828   1.075       .  S
C823        C824   1.363       .  D
C824        C843   1.517       .  S
C829        C830   1.554       .  S
C829        C835   1.547       .  S
C829        C833   1.560       .  S
C829        C898   1.543       .  S
C830        H837   1.082       .  S
C830        C831   1.362       .  D
C831        C832   1.532       .  S
C831        C848   1.512       .  S
C832        C836   1.536       .  S
C832        C834   1.540       .  S
C832        H838   1.048       .  S
C833        H839   1.083       .  S
C833        C834   1.374       .  D
C835        H840   1.085       .  S
C835        C836   1.366       .  D
C841        C842   1.552       .  S
C841        C847   1.557       .  S
C841        C845   1.556       .  S
C841        C882   1.552       .  S
C842        H849   1.083       .  S
C842        C843   1.369       .  D
C843        C844   1.534       .  S
C844        C848   1.532       .  S
C844        C846   1.541       .  S
C844        H850   1.049       .  S
C845        H851   1.085       .  S
C845        C846   1.374       .  D
C847        H852   1.078       .  S
C847        C848   1.362       .  D
O853       Ni861   1.922       .  S
O853        C863   1.283       .  A
O854      Ni1869   1.918       .  S
O854        C864   1.282       .  A
O855       Ni861   1.918       .  S
O855        C865   1.280       .  A
O856      Ni1869   1.921       .  S
O856        C866   1.281       .  A
O857      Ni1870   1.916   1_455  S
O857        C866   1.280       .  A
O858       Ni862   1.922       .  S
O858        C865   1.282       .  A
O859      Ni1870   1.922   1_455  S
O859        C864   1.282       .  A
O860       Ni862   1.916       .  S
O860        C863   1.281       .  A
Ni861      O1862   1.920       .  S
Ni861      O1864   1.919       .  S
Ni861      Ni862   2.387       .  S
Ni862      O1865   1.922       .  S
Ni862      O1867   1.918       .  S
C864        C914   1.491       .  S
C865        C901   1.481       .  S
O867       Ni875   1.930       .  S
O868       Ni875   1.927       .  S
O868        C878   1.283       .  A
O869       Ni875   1.926       .  S
O870       Ni875   1.921       .  S
O870        C880   1.282       .  A
O871       Ni876   1.924       .  S
O871        C880   1.281       .  A
O872       Ni876   1.922       .  S
O873       Ni876   1.924       .  S
O873        C878   1.282       .  A
O874       Ni876   1.923       .  S
Ni875      Ni876   2.384       .  S
C878        C885   1.499       .  S
C879        C930   1.490       .  S
C881        C882   1.413       .  A
C881        C886   1.405       .  A
C881        H888   1.078       .  S
C882        C883   1.425       .  A
C883        C890   1.509       .  S
C883        C884   1.410       .  A
C884        C885   1.407       .  A
C884        H889   1.084       .  S
C885        C886   1.417       .  A
C886        C887   1.510       .  S
C887        H891   1.111       .  S
C887        H892   1.110       .  S
C887        H893   1.111       .  S
C890        H894   1.105       .  S
C890        H895   1.110       .  S
C890        H896   1.111       .  S
C897        C898   1.415       .  A
C897        C902   1.401       .  A
C897        H904   1.081       .  S
C898        C899   1.425       .  A
C899        C906   1.507       .  S
C899        C900   1.409       .  A
C900        C901   1.403       .  A
C900        H905   1.085       .  S
C901        C902   1.408       .  A
C902        C903   1.509       .  S
C903        H907   1.109       .  S
C903        H908   1.111       .  S
C903        H909   1.111       .  S
C906        H910   1.106       .  S
C906        H911   1.110       .  S
C906        H912   1.111       .  S
C913        C914   1.404       .  A
C913        C918   1.410       .  A
C913        H920   1.084       .  S
C914        C915   1.412       .  A
C915        C922   1.511       .  S
C915        C916   1.404       .  A
C916        C917   1.416       .  A
C916        H921   1.071       .  S
C917        C918   1.429       .  A
C918        C919   1.513       .  S
C919        H923   1.111       .  S
C919        H924   1.107       .  S
C919        H925   1.106       .  S
C922        H926   1.110       .  S
C922        H927   1.111       .  S
C922        H928   1.111       .  S
C929        C930   1.401       .  A
C929        C934   1.408       .  A
C930        C931   1.411       .  A
C931        C938   1.510       .  S
C931        C932   1.407       .  A
C932        C933   1.417       .  A
C932        H937   1.072       .  S
C933        C934   1.430       .  A
C934        C935   1.515       .  S
C935        H939   1.111       .  S
C935        H940   1.106       .  S
C935        H941   1.105       .  S
C938        H942   1.109       .  S
C938        H943   1.111       .  S
C938        H944   1.111       .  S
C945        C946   1.413       .  A
C945        C950   1.408       .  A
C945        H952   1.079       .  S
C946        C947   1.430       .  A
C947        C954   1.512       .  S
C947        C948   1.404       .  A
C948        C949   1.397       .  A
C949        C950   1.410       .  A
C950        C951   1.506       .  S
C951        H955   1.111       .  S
C951        H956   1.110       .  S
C951        H957   1.106       .  S
C954        H958   1.103       .  S
C954        H959   1.110   1_556  S
C961        C962   1.414       .  A
C961        C966   1.401       .  A
C961        H968   1.071       .  S
C962        C963   1.428       .  A
C963        C970   1.513       .  S
C963        C964   1.408       .  A
C964        C965   1.403       .  A
C964        H969   1.084       .  S
C965        C966   1.412       .  A
C967        H971   1.109       .  S
C967        H972   1.111       .  S
C967        H973   1.111       .  S
C970        H974   1.106       .  S
C970        H975   1.107       .  S
C970        H976   1.111       .  S
C977        C978   1.415       .  A
C977        C982   1.407       .  A
C977        H984   1.075       .  S
C978        C979   1.435       .  A
C979        C986   1.514       .  S
C979        C980   1.402       .  A
C980        C981   1.392       .  A
C981        C982   1.406       .  A
C982        C983   1.509       .  S
C983        H987   1.111       .  S
C983        H988   1.110       .  S
C983        H989   1.111       .  S
C986        H990   1.111   1_556  S
C986        H991   1.101       .  S
C993        C994   1.394       .  A
C993        C998   1.402       .  A
C994        C995   1.416       .  A
C995        C996   1.414       .  A
C996        C997   1.412       .  A
C996       H1001   1.080       .  S
C997        C998   1.435       .  A
C998        C999   1.514       .  S
C999       H1003   1.111   1_556  S
C999       H1004   1.102       .  S
C999       H1005   1.111       .  S
C1002      H1006   1.110       .  S
C1002      H1007   1.107       .  S
C1002      H1008   1.110       .  S
C1009      C1010   1.548       .  S
C1009      C1015   1.543       .  S
C1009      C1013   1.572       .  S
C1009      C1249   1.549       .  S
C1010      H1017   1.085       .  S
C1010      C1011   1.365       .  D
C1011      C1012   1.534       .  S
C1011      C1028   1.516       .  S
C1012      C1016   1.533       .  S
C1012      C1014   1.541       .  S
C1012      H1018   1.049       .  S
C1013      H1019   1.082       .  S
C1013      C1014   1.385       .  D
C1014      C1062   1.529       .  S
C1015      H1020   1.083       .  S
C1015      C1016   1.360       .  D
C1016      C1035   1.510       .  S
C1021      C1022   1.549       .  S
C1021      C1027   1.547       .  S
C1021      C1025   1.568       .  S
C1021      C1230   1.542       .  S
C1022      H1029   1.085       .  S
C1022      C1023   1.364       .  D
C1023      C1024   1.539       .  S
C1023      C1052   1.516       .  S
C1024      C1028   1.539       .  S
C1024      C1026   1.541       .  S
C1024      H1030   1.049       .  S
C1025      H1031   1.079       .  S
C1025      C1026   1.374       .  D
C1026      C1074   1.523       .  S
C1027      H1032   1.085       .  S
C1027      C1028   1.362       .  D
C1033      C1034   1.556       .  S
C1033      C1039   1.545       .  S
C1033      C1037   1.559       .  S
C1033      C1214   1.546       .  S
C1034      H1041   1.077       .  S
C1034      C1035   1.362       .  D
C1035      C1036   1.532       .  S
C1036      C1040   1.535       .  S
C1036      C1038   1.542       .  S
C1036      H1042   1.050       .  S
C1037      H1043   1.082       .  S
C1037      C1038   1.375       .  D
C1038      C1086   1.520       .  S
C1039      H1044   1.085       .  S
C1039      C1040   1.361       .  D
C1040      C1047   1.512       .  S
C1045      C1046   1.544       .  S
C1045      C1051   1.554       .  S
C1045      C1049   1.565       .  S
C1045      C1198   1.539       .  S
C1046      H1053   1.084       .  S
C1046      C1047   1.363       .  D
C1047      C1048   1.533       .  S
C1048      C1052   1.534       .  S
C1048      C1050   1.541       .  S
C1048      H1054   1.043       .  S
C1049      H1055   1.082       .  S
C1049      C1050   1.373       .  D
C1050      C1098   1.522       .  S
C1051      H1056   1.084       .  S
C1051      C1052   1.366       .  D
C1057      C1058   1.552       .  S
C1057      C1063   1.565       .  S
C1057      C1061   1.560       .  S
C1057      C1185   1.552       .  S
C1058      H1065   1.084       .  S
C1058      C1059   1.363       .  D
C1059      C1060   1.536       .  S
C1059      C1088   1.519       .  S
C1060      C1064   1.535       .  S
C1060      C1062   1.545       .  S
C1060      H1066   1.043       .  S
C1061      H1067   1.084       .  S
C1061      C1062   1.369       .  D
C1063      H1068   1.077       .  S
C1063      C1064   1.368       .  D
C1064      C1071   1.520       .  S
C1069      C1070   1.550       .  S
C1069      C1075   1.560       .  S
C1069      C1073   1.557       .  S
C1069      C1169   1.552       .  S
C1070      H1077   1.084       .  S
C1070      C1071   1.364       .  D
C1071      C1072   1.537       .  S
C1072      C1076   1.538       .  S
C1072      C1074   1.542       .  S
C1072      H1078   1.050       .  S
C1073      H1079   1.083       .  S
C1073      C1074   1.373       .  D
C1075      H1080   1.075       .  S
C1075      C1076   1.362       .  D
C1076      C1095   1.516       .  S
C1081      C1082   1.554       .  S
C1081      C1087   1.550       .  S
C1081      C1085   1.559       .  S
C1081      C1150   1.549       .  S
C1082      H1089   1.079       .  S
C1082      C1083   1.358       .  D
C1083      C1084   1.532       .  S
C1083      C1100   1.511       .  S
C1084      C1088   1.536       .  S
C1084      C1086   1.543       .  S
C1084      H1090   1.049       .  S
C1085      H1091   1.082       .  S
C1085      C1086   1.375       .  D
C1087      H1092   1.085       .  S
C1087      C1088   1.367       .  D
C1093      C1094   1.553       .  S
C1093      C1099   1.554       .  S
C1093      C1097   1.556       .  S
C1093      C1134   1.550       .  S
C1094      H1101   1.083       .  S
C1094      C1095   1.369       .  D
C1095      C1096   1.534       .  S
C1096      C1100   1.529       .  S
C1096      C1098   1.541       .  S
C1096      H1102   1.049       .  S
C1097      H1103   1.085       .  S
C1097      C1098   1.374       .  D
C1099      H1104   1.079       .  S
C1099      C1100   1.363       .  D
O1105     Ni1113   1.917   1_655  S
O1105      C1115   1.281       .  A
O1106      C1116   1.281       .  A
O1107     Ni1113   1.926   1_655  S
O1107      C1117   1.282       .  A
O1108      C1118   1.281       .  A
O1109      C1118   1.280       .  A
O1110     Ni1114   1.913       .  S
O1110      C1117   1.280       .  A
O1111      C1116   1.282       .  A
O1112     Ni1114   1.920       .  S
O1112      C1115   1.282       .  A
Ni1113    Ni1114   2.385   1_455  S
C1115      C1469   1.490   1_554  S
C1116      C1166   1.487       .  S
C1117      C1153   1.488       .  S
C1118      C1485   1.473   1_554  S
O1119     Ni1127   1.932       .  S
O1119      C1633   1.283       .  A
O1120     Ni1127   1.926       .  S
O1120      C1130   1.283       .  A
O1121     Ni1127   1.921       .  S
O1121      C1635   1.282       .  A
O1122     Ni1127   1.920       .  S
O1122      C1132   1.281       .  A
O1123     Ni1128   1.922       .  S
O1123      C1132   1.281       .  A
O1124     Ni1128   1.917       .  S
O1124      C1635   1.281       .  A
O1125     Ni1128   1.925       .  S
O1125      C1130   1.283       .  A
O1126     Ni1128   1.926       .  S
O1126      C1633   1.283       .  A
Ni1127    Ni1128   2.384       .  S
C1129      O1623   1.281       .  A
C1129      O1630   1.284       .  A
C1129      C1498   1.485   1_564  S
C1130      C1137   1.501       .  S
C1131      O1625   1.283   1_545  A
C1131      O1628   1.282   1_545  A
C1131      C1182   1.491       .  S
C1132      C1453   1.478   1_554  S
C1133      C1134   1.412       .  A
C1133      C1138   1.407       .  A
C1133      H1140   1.079       .  S
C1134      C1135   1.422       .  A
C1135      C1142   1.508       .  S
C1135      C1136   1.409       .  A
C1136      C1137   1.408       .  A
C1136      H1141   1.084       .  S
C1137      C1138   1.418       .  A
C1138      C1139   1.509       .  S
C1139      H1143   1.111       .  S
C1139      H1144   1.110       .  S
C1139      H1145   1.110       .  S
C1142      H1146   1.106       .  S
C1142      H1147   1.110       .  S
C1142      H1148   1.111       .  S
C1149      C1150   1.416       .  A
C1149      C1154   1.399       .  A
C1149      H1156   1.077       .  S
C1150      C1151   1.426       .  A
C1151      C1158   1.510       .  S
C1151      C1152   1.413       .  A
C1152      C1153   1.405       .  A
C1152      H1157   1.084       .  S
C1153      C1154   1.411       .  A
C1154      C1155   1.512       .  S
C1155      H1159   1.109       .  S
C1155      H1160   1.111       .  S
C1155      H1161   1.111       .  S
C1158      H1162   1.109       .  S
C1158      H1163   1.105       .  S
C1158      H1164   1.111       .  S
C1165      C1166   1.402       .  A
C1165      C1170   1.409       .  A
C1165      H1172   1.084       .  S
C1166      C1167   1.410       .  A
C1167      C1174   1.511       .  S
C1167      C1168   1.403       .  A
C1168      C1169   1.417       .  A
C1168      H1173   1.071       .  S
C1169      C1170   1.430       .  A
C1170      C1171   1.513       .  S
C1171      H1175   1.111       .  S
C1171      H1176   1.106       .  S
C1171      H1177   1.106       .  S
C1174      H1178   1.110       .  S
C1174      H1179   1.111       .  S
C1174      H1180   1.111       .  S
C1181      C1182   1.401       .  A
C1181      C1186   1.407       .  A
C1181      H1692   1.084       .  S
C1182      C1183   1.412       .  A
C1183      C1190   1.509       .  S
C1183      C1184   1.409       .  A
C1184      C1185   1.417       .  A
C1184      H1189   1.073       .  S
C1185      C1186   1.430       .  A
C1186      C1187   1.515       .  S
C1187      H1191   1.111       .  S
C1187      H1192   1.106       .  S
C1187      H1193   1.105       .  S
H1188      C1685   1.084       .  S
C1190      H1194   1.109       .  S
C1190      H1195   1.111       .  S
C1190      H1196   1.111       .  S
C1197      C1198   1.413       .  A
C1197      C1202   1.408       .  A
C1197      H1204   1.080       .  S
C1198      C1199   1.429       .  A
C1199      C1206   1.512       .  S
C1199      C1200   1.402       .  A
C1200      C1201   1.396       .  A
C1200      H1457   1.085       .  S
C1201      C1384   1.478       .  S
C1201      C1202   1.410       .  A
C1202      C1203   1.506       .  S
C1203      H1207   1.111       .  S
C1203      H1208   1.110       .  S
C1203      H1209   1.106       .  S
H1205      C1452   1.085   1_554  S
C1206      H1210   1.104       .  S
C1206      H1211   1.110       .  S
C1206      H1464   1.111       .  S
H1212      C1458   1.111   1_554  S
C1213      C1214   1.418       .  A
C1213      C1218   1.401       .  A
C1213      H1220   1.074       .  S
C1214      C1215   1.428       .  A
C1215      C1222   1.512       .  S
C1215      C1216   1.408       .  A
C1216      C1217   1.401       .  A
C1216      H1221   1.084       .  S
C1217      C1367   1.480       .  S
C1217      C1218   1.406       .  A
C1218      C1471   1.511       .  S
C1219      C1470   1.510       .  S
C1219      H1223   1.110       .  S
C1219      H1224   1.111       .  S
C1219      H1225   1.111   1_556  S
C1222      H1226   1.108       .  S
C1222      H1227   1.106       .  S
C1222      H1228   1.111       .  S
C1229      C1230   1.415       .  A
C1229      C1234   1.406       .  A
C1229      H1236   1.075       .  S
C1230      C1231   1.435       .  A
C1231      C1238   1.514       .  S
C1231      C1232   1.402       .  A
C1232      C1233   1.392       .  A
C1232      H1489   1.085       .  S
C1233      C1370   1.470       .  S
C1233      C1234   1.406       .  A
C1234      C1235   1.508       .  S
C1235      H1239   1.111       .  S
C1235      H1240   1.110       .  S
C1235      H1241   1.111       .  S
H1237      C1484   1.085   1_554  S
C1238      H1242   1.111       .  S
C1238      H1243   1.101       .  S
C1238      H1496   1.111       .  S
H1244      C1490   1.111   1_554  S
C1245      C1246   1.394       .  A
C1245      C1250   1.402       .  A
C1245      H1504   1.086       .  S
C1246      C1381   1.488       .  S
C1246      C1247   1.417       .  A
C1247      C1758   1.505   1_545  S
C1247      C1248   1.416       .  A
C1248      C1249   1.413       .  A
C1248      H1253   1.080       .  S
C1249      C1250   1.435       .  A
C1250      C1251   1.515       .  S
C1251      H1255   1.111       .  S
C1251      H1256   1.102       .  S
C1251      H1257   1.111       .  S
H1252      C1497   1.086   1_554  S
C1254      C1751   1.506       .  S
C1254      H1258   1.110       .  S
C1254      H1259   1.107       .  S
C1254      H1260   1.110       .  S
C1261      C1262   1.547       .  S
C1261      C1267   1.544       .  S
C1261      C1265   1.571       .  S
C1261      C1501   1.546       .  S
C1262      H1269   1.085       .  S
C1262      C1263   1.364       .  D
C1263      C1264   1.536       .  S
C1263      C1280   1.516       .  S
C1264      C1268   1.536       .  S
C1264      C1266   1.544       .  S
C1264      H1270   1.049       .  S
C1265      H1271   1.082       .  S
C1265      C1266   1.384       .  D
C1266      C1314   1.530       .  S
C1267      H1272   1.083       .  S
C1267      C1268   1.359       .  D
C1268      C1287   1.513       .  S
C1273      C1274   1.547       .  S
C1273      C1279   1.549       .  S
C1273      C1277   1.569       .  S
C1273      C1482   1.544       .  S
C1274      H1281   1.085       .  S
C1274      C1275   1.363       .  D
C1275      C1276   1.538       .  S
C1275      C1304   1.513       .  S
C1276      C1280   1.537       .  S
C1276      C1278   1.541       .  S
C1276      H1282   1.049       .  S
C1277      H1283   1.080       .  S
C1277      C1278   1.375       .  D
C1278      C1326   1.525       .  S
C1279      H1284   1.085       .  S
C1279      C1280   1.364       .  D
C1285      C1286   1.560       .  S
C1285      C1291   1.549       .  S
C1285      C1289   1.555       .  S
C1285      C1466   1.548       .  S
C1286      H1293   1.075       .  S
C1286      C1287   1.366       .  D
C1287      C1288   1.530       .  S
C1288      C1292   1.538       .  S
C1288      C1290   1.540       .  S
C1288      H1294   1.050       .  S
C1289      H1295   1.084       .  S
C1289      C1290   1.371       .  D
C1290      C1338   1.519       .  S
C1291      H1296   1.084       .  S
C1291      C1292   1.363       .  D
C1292      C1299   1.515       .  S
C1297      C1298   1.546       .  S
C1297      C1303   1.551       .  S
C1297      C1301   1.566       .  S
C1297      C1450   1.540       .  S
C1298      H1305   1.085       .  S
C1298      C1299   1.365       .  D
C1299      C1300   1.534       .  S
C1300      C1304   1.534       .  S
C1300      C1302   1.539       .  S
C1300      H1306   1.044       .  S
C1301      H1307   1.082       .  S
C1301      C1302   1.373       .  D
C1302      C1350   1.522       .  S
C1303      H1308   1.084       .  S
C1303      C1304   1.364       .  D
C1309      C1310   1.552       .  S
C1309      C1315   1.565       .  S
C1309      C1313   1.561       .  S
C1309      C1437   1.557       .  S
C1310      H1317   1.085       .  S
C1310      C1311   1.365       .  D
C1311      C1312   1.534       .  S
C1311      C1340   1.518       .  S
C1312      C1316   1.532       .  S
C1312      C1314   1.544       .  S
C1312      H1318   1.044       .  S
C1313      H1319   1.083       .  S
C1313      C1314   1.371       .  D
C1315      H1320   1.077       .  S
C1315      C1316   1.368       .  D
C1316      C1323   1.520       .  S
C1321      C1322   1.548       .  S
C1321      C1327   1.562       .  S
C1321      C1325   1.558       .  S
C1321      C1421   1.551       .  S
C1322      H1329   1.084       .  S
C1322      C1323   1.363       .  D
C1323      C1324   1.540       .  S
C1324      C1328   1.540       .  S
C1324      C1326   1.541       .  S
C1324      H1330   1.050       .  S
C1325      H1331   1.084       .  S
C1325      C1326   1.373       .  D
C1327      H1332   1.076       .  S
C1327      C1328   1.364       .  D
C1328      C1347   1.519       .  S
C1333      C1334   1.552       .  S
C1333      C1339   1.548       .  S
C1333      C1337   1.559       .  S
C1333      C1402   1.545       .  S
C1334      H1341   1.080       .  S
C1334      C1335   1.358       .  D
C1335      C1336   1.533       .  S
C1335      C1352   1.511       .  S
C1336      C1340   1.538       .  S
C1336      C1338   1.541       .  S
C1336      H1342   1.049       .  S
C1337      H1343   1.081       .  S
C1337      C1338   1.374       .  D
C1339      H1344   1.085       .  S
C1339      C1340   1.366       .  D
C1345      C1346   1.555       .  S
C1345      C1351   1.555       .  S
C1345      C1349   1.555       .  S
C1345      C1386   1.553       .  S
C1346      H1353   1.083       .  S
C1346      C1347   1.371       .  D
C1347      C1348   1.535       .  S
C1348      C1352   1.529       .  S
C1348      C1350   1.542       .  S
C1348      H1354   1.049       .  S
C1349      H1355   1.085       .  S
C1349      C1350   1.373       .  D
C1351      H1356   1.079       .  S
C1351      C1352   1.363       .  D
O1357     Ni1365   1.922   1_655  S
O1357      C1367   1.283       .  A
O1358      C1368   1.283       .  A
O1359     Ni1365   1.917   1_655  S
O1359      C1369   1.280       .  A
O1360      C1370   1.280       .  A
O1361      C1370   1.280       .  A
O1362     Ni1366   1.918       .  S
O1362      C1369   1.282       .  A
O1363      C1368   1.281       .  A
O1364     Ni1366   1.911       .  S
O1364      C1367   1.279       .  A
Ni1365    Ni1366   2.388   1_455  S
C1368      C1418   1.493       .  S
C1369      C1405   1.482       .  S
O1371     Ni1379   1.930       .  S
O1371      C1885   1.282       .  A
O1372     Ni1379   1.926       .  S
O1372      C1382   1.283       .  A
O1373     Ni1379   1.926       .  S
O1373      C1887   1.283       .  A
O1374     Ni1379   1.920       .  S
O1374      C1384   1.282       .  A
O1375     Ni1380   1.923       .  S
O1375      C1384   1.281       .  A
O1376     Ni1380   1.922       .  S
O1376      C1887   1.282       .  A
O1377     Ni1380   1.929       .  S
O1377      C1382   1.284       .  A
O1378     Ni1380   1.929       .  S
O1378      C1885   1.284       .  A
Ni1379    Ni1380   2.383       .  S
C1381      O1875   1.283   1_545  A
C1381      O1882   1.283   1_545  A
C1382      C1389   1.502       .  S
C1383      O1877   1.283   1_545  A
C1383      O1880   1.282   1_545  A
C1383      C1434   1.493       .  S
C1385      C1386   1.414       .  A
C1385      C1390   1.407       .  A
C1385      H1392   1.079       .  S
C1386      C1387   1.423       .  A
C1387      C1394   1.508       .  S
C1387      C1388   1.410       .  A
C1388      C1389   1.409       .  A
C1388      H1393   1.084       .  S
C1389      C1390   1.417       .  A
C1390      C1391   1.509       .  S
C1391      H1395   1.111       .  S
C1391      H1396   1.110       .  S
C1391      H1397   1.110       .  S
C1394      H1398   1.106       .  S
C1394      H1399   1.110       .  S
C1394      H1400   1.111       .  S
C1401      C1402   1.416       .  A
C1401      C1406   1.398       .  A
C1401      H1408   1.079       .  S
C1402      C1403   1.425       .  A
C1403      C1410   1.509       .  S
C1403      C1404   1.411       .  A
C1404      C1405   1.404       .  A
C1404      H1409   1.084       .  S
C1405      C1406   1.408       .  A
C1406      C1407   1.511       .  S
C1407      H1411   1.109       .  S
C1407      H1412   1.111       .  S
C1407      H1413   1.111       .  S
C1410      H1414   1.109       .  S
C1410      H1415   1.105       .  S
C1410      H1416   1.111       .  S
C1417      C1418   1.403       .  A
C1417      C1422   1.409       .  A
C1417      H1424   1.084       .  S
C1418      C1419   1.414       .  A
C1419      C1426   1.511       .  S
C1419      C1420   1.404       .  A
C1420      C1421   1.414       .  A
C1420      H1425   1.072       .  S
C1421      C1422   1.429       .  A
C1422      C1423   1.514       .  S
C1423      H1427   1.111       .  S
C1423      H1428   1.107       .  S
C1423      H1429   1.105       .  S
C1426      H1430   1.110       .  S
C1426      H1431   1.111       .  S
C1426      H1432   1.111       .  S
C1433      C1434   1.402       .  A
C1433      C1438   1.410       .  A
C1433      H1944   1.084       .  S
C1434      C1435   1.410       .  A
C1435      C1442   1.509       .  S
C1435      C1436   1.409       .  A
C1436      C1437   1.419       .  A
C1436      H1441   1.073       .  S
C1437      C1438   1.431       .  A
C1438      C1439   1.514       .  S
C1439      H1443   1.111       .  S
C1439      H1444   1.106       .  S
C1439      H1445   1.106       .  S
H1440      C1937   1.084       .  S
C1442      H1446   1.109       .  S
C1442      H1447   1.111       .  S
C1442      H1448   1.111       .  S
C1449      C1450   1.412       .  A
C1449      C1454   1.407       .  A
C1449      H1456   1.080       .  S
C1450      C1451   1.430       .  A
C1451      C1458   1.511       .  S
C1451      C1452   1.404       .  A
C1452      C1453   1.397       .  A
C1453      C1454   1.410       .  A
C1454      C1455   1.506       .  S
C1455      H1459   1.111       .  S
C1455      H1460   1.110       .  S
C1455      H1461   1.106       .  S
C1458      H1462   1.104       .  S
C1458      H1463   1.110   1_556  S
C1465      C1466   1.414       .  A
C1465      C1470   1.404       .  A
C1465      H1472   1.072       .  S
C1466      C1467   1.428       .  A
C1467      C1474   1.513       .  S
C1467      C1468   1.408       .  A
C1468      C1469   1.403       .  A
C1468      H1473   1.084       .  S
C1469      C1470   1.414       .  A
C1471      H1475   1.109       .  S
C1471      H1476   1.111       .  S
C1471      H1477   1.111       .  S
C1474      H1478   1.105       .  S
C1474      H1479   1.107       .  S
C1474      H1480   1.111       .  S
C1481      C1482   1.414       .  A
C1481      C1486   1.407       .  A
C1481      H1488   1.075       .  S
C1482      C1483   1.436       .  A
C1483      C1490   1.514       .  S
C1483      C1484   1.404       .  A
C1484      C1485   1.393       .  A
C1485      C1486   1.406       .  A
C1486      C1487   1.508       .  S
C1487      H1491   1.111       .  S
C1487      H1492   1.110       .  S
C1487      H1493   1.111       .  S
C1490      H1494   1.111   1_556  S
C1490      H1495   1.101       .  S
C1497      C1498   1.393       .  A
C1497      C1502   1.400       .  A
C1498      C1499   1.417       .  A
C1499      C2010   1.506   1_545  S
C1499      C1500   1.415       .  A
C1500      C1501   1.412       .  A
C1500      H1505   1.080       .  S
C1501      C1502   1.434       .  A
C1502      C1503   1.515       .  S
C1503      H1507   1.111   1_556  S
C1503      H1508   1.102       .  S
C1503      H1509   1.111       .  S
C1506      C2003   1.505       .  S
C1506      H1510   1.110       .  S
C1506      H1511   1.107       .  S
C1506      H1512   1.110       .  S
C1513      C1514   1.549       .  S
C1513      C1519   1.544       .  S
C1513      C1517   1.571       .  S
C1513      C1753   1.549       .  S
C1514      H1521   1.085       .  S
C1514      C1515   1.366       .  D
C1515      C1516   1.533       .  S
C1515      C1532   1.517       .  S
C1516      C1520   1.534       .  S
C1516      C1518   1.541       .  S
C1516      H1522   1.047       .  S
C1517      H1523   1.082       .  S
C1517      C1518   1.384       .  D
C1518      C1566   1.527       .  S
C1519      H1524   1.083       .  S
C1519      C1520   1.360       .  D
C1520      C1539   1.513       .  S
C1525      C1526   1.549       .  S
C1525      C1531   1.548       .  S
C1525      C1529   1.568       .  S
C1525      C1734   1.545       .  S
C1526      H1533   1.085       .  S
C1526      C1527   1.365       .  D
C1527      C1528   1.536       .  S
C1527      C1556   1.516       .  S
C1528      C1532   1.540       .  S
C1528      C1530   1.541       .  S
C1528      H1534   1.049       .  S
C1529      H1535   1.079       .  S
C1529      C1530   1.374       .  D
C1530      C1578   1.524       .  S
C1531      H1536   1.085       .  S
C1531      C1532   1.363       .  D
C1537      C1538   1.559       .  S
C1537      C1543   1.550       .  S
C1537      C1541   1.556       .  S
C1537      C1718   1.551       .  S
C1538      H1545   1.074       .  S
C1538      C1539   1.363       .  D
C1539      C1540   1.531       .  S
C1540      C1544   1.538       .  S
C1540      C1542   1.541       .  S
C1540      H1546   1.049       .  S
C1541      H1547   1.084       .  S
C1541      C1542   1.372       .  D
C1542      C1590   1.520       .  S
C1543      H1548   1.084       .  S
C1543      C1544   1.364       .  D
C1544      C1551   1.517       .  S
C1549      C1550   1.547       .  S
C1549      C1555   1.552       .  S
C1549      C1553   1.566       .  S
C1549      C1702   1.542       .  S
C1550      H1557   1.085       .  S
C1550      C1551   1.365       .  D
C1551      C1552   1.535       .  S
C1552      C1556   1.536       .  S
C1552      C1554   1.542       .  S
C1552      H1558   1.046       .  S
C1553      H1559   1.082       .  S
C1553      C1554   1.373       .  D
C1554      C1602   1.523       .  S
C1555      H1560   1.084       .  S
C1555      C1556   1.364       .  D
C1561      C1562   1.549       .  S
C1561      C1567   1.563       .  S
C1561      C1565   1.559       .  S
C1561      C1689   1.550       .  S
C1562      H1569   1.084       .  S
C1562      C1563   1.363       .  D
C1563      C1564   1.532       .  S
C1563      C1592   1.514       .  S
C1564      C1568   1.534       .  S
C1564      C1566   1.546       .  S
C1564      H1570   1.045       .  S
C1565      H1571   1.083       .  S
C1565      C1566   1.370       .  D
C1567      H1572   1.076       .  S
C1567      C1568   1.366       .  D
C1568      C1575   1.518       .  S
C1573      C1574   1.548       .  S
C1573      C1579   1.559       .  S
C1573      C1577   1.559       .  S
C1573      C1673   1.550       .  S
C1574      H1581   1.084       .  S
C1574      C1575   1.364       .  D
C1575      C1576   1.536       .  S
C1576      C1580   1.541       .  S
C1576      C1578   1.542       .  S
C1576      H1582   1.049       .  S
C1577      H1583   1.082       .  S
C1577      C1578   1.374       .  D
C1579      H1584   1.078       .  S
C1579      C1580   1.361       .  D
C1580      C1599   1.518       .  S
C1585      C1586   1.553       .  S
C1585      C1591   1.543       .  S
C1585      C1589   1.560       .  S
C1585      C1654   1.540       .  S
C1586      H1593   1.081       .  S
C1586      C1587   1.359       .  D
C1587      C1588   1.534       .  S
C1587      C1604   1.511       .  S
C1588      C1592   1.538       .  S
C1588      C1590   1.542       .  S
C1588      H1594   1.049       .  S
C1589      H1595   1.084       .  S
C1589      C1590   1.376       .  D
C1591      H1596   1.085       .  S
C1591      C1592   1.363       .  D
C1597      C1598   1.555       .  S
C1597      C1603   1.556       .  S
C1597      C1601   1.557       .  S
C1597      C1638   1.555       .  S
C1598      H1605   1.083       .  S
C1598      C1599   1.372       .  D
C1599      C1600   1.532       .  S
C1600      C1604   1.529       .  S
C1600      C1602   1.539       .  S
C1600      H1606   1.048       .  S
C1601      H1607   1.085       .  S
C1601      C1602   1.375       .  D
C1603      H1608   1.079       .  S
C1603      C1604   1.363       .  D
O1609     Ni1617   1.921   1_655  S
O1609      C1619   1.282       .  A
O1610      C1620   1.280       .  A
O1611     Ni1617   1.920   1_655  S
O1611      C1621   1.281       .  A
O1612      C1622   1.282       .  A
O1613      C1622   1.279       .  A
O1614     Ni1618   1.914       .  S
O1614      C1621   1.281       .  A
O1615      C1620   1.282       .  A
O1616     Ni1618   1.912       .  S
O1616      C1619   1.281       .  A
Ni1617    Ni1618   2.387   1_455  S
C1619      C1973   1.490   1_554  S
C1620      C1670   1.482       .  S
C1621      C1657   1.480       .  S
C1622      C1989   1.471   1_554  S
O1623     Ni1631   1.928       .  S
O1624     Ni1631   1.926       .  S
O1624      C1634   1.283       .  A
O1625     Ni1631   1.927       .  S
O1626     Ni1631   1.922       .  S
O1626      C1636   1.282       .  A
O1627     Ni1632   1.920       .  S
O1627      C1636   1.280       .  A
O1628     Ni1632   1.917       .  S
O1629     Ni1632   1.931       .  S
O1629      C1634   1.284       .  A
O1630     Ni1632   1.927       .  S
Ni1631    Ni1632   2.384       .  S
C1633      C2002   1.487   1_554  S
C1634      C1641   1.503       .  S
C1635      C1686   1.485       .  S
C1636      C1957   1.477   1_554  S
C1637      C1638   1.415       .  A
C1637      C1642   1.408       .  A
C1637      H1644   1.078       .  S
C1638      C1639   1.424       .  A
C1639      C1646   1.508       .  S
C1639      C1640   1.411       .  A
C1640      C1641   1.408       .  A
C1640      H1645   1.084       .  S
C1641      C1642   1.416       .  A
C1642      C1643   1.509       .  S
C1643      H1647   1.111       .  S
C1643      H1648   1.110       .  S
C1643      H1649   1.111       .  S
C1646      H1650   1.105       .  S
C1646      H1651   1.110       .  S
C1646      H1652   1.111       .  S
C1653      C1654   1.415       .  A
C1653      C1658   1.398       .  A
C1653      H1660   1.079       .  S
C1654      C1655   1.424       .  A
C1655      C1662   1.508       .  S
C1655      C1656   1.409       .  A
C1656      C1657   1.404       .  A
C1656      H1661   1.085       .  S
C1657      C1658   1.409       .  A
C1658      C1659   1.511       .  S
C1659      H1663   1.109       .  S
C1659      H1664   1.111       .  S
C1659      H1665   1.111       .  S
C1662      H1666   1.104       .  S
C1662      H1667   1.110       .  S
C1662      H1668   1.111       .  S
C1669      C1670   1.402       .  A
C1669      C1674   1.409       .  A
C1669      H1676   1.084       .  S
C1670      C1671   1.408       .  A
C1671      C1678   1.511       .  S
C1671      C1672   1.401       .  A
C1672      C1673   1.417       .  A
C1672      H1677   1.073       .  S
C1673      C1674   1.430       .  A
C1674      C1675   1.513       .  S
C1675      H1679   1.111       .  S
C1675      H1680   1.105       .  S
C1675      H1681   1.107       .  S
C1678      H1682   1.109       .  S
C1678      H1683   1.111       .  S
C1678      H1684   1.111       .  S
C1685      C1686   1.401       .  A
C1685      C1690   1.407       .  A
C1686      C1687   1.409       .  A
C1687      C1694   1.510       .  S
C1687      C1688   1.405       .  A
C1688      C1689   1.417       .  A
C1688      H1693   1.072       .  S
C1689      C1690   1.430       .  A
C1690      C1691   1.515       .  S
C1691      H1695   1.111       .  S
C1691      H1696   1.106       .  S
C1691      H1697   1.106       .  S
C1694      H1698   1.109       .  S
C1694      H1699   1.111       .  S
C1694      H1700   1.111       .  S
C1701      C1702   1.412       .  A
C1701      C1706   1.408       .  A
C1701      H1708   1.080       .  S
C1702      C1703   1.430       .  A
C1703      C1710   1.511       .  S
C1703      C1704   1.405       .  A
C1704      C1705   1.398       .  A
C1704      H1961   1.085       .  S
C1705      C1888   1.482       .  S
C1705      C1706   1.411       .  A
C1706      C1707   1.506       .  S
C1707      H1711   1.111       .  S
C1707      H1712   1.110       .  S
C1707      H1713   1.106       .  S
H1709      C1956   1.085   1_554  S
C1710      H1714   1.104       .  S
C1710      H1715   1.110       .  S
C1710      H1968   1.111       .  S
H1716      C1962   1.111   1_554  S
C1717      C1718   1.415       .  A
C1717      C1722   1.403       .  A
C1717      H1724   1.072       .  S
C1718      C1719   1.427       .  A
C1719      C1726   1.513       .  S
C1719      C1720   1.409       .  A
C1720      C1721   1.404       .  A
C1720      H1725   1.084       .  S
C1721      C1871   1.491       .  S
C1721      C1722   1.413       .  A
C1722      C1975   1.511       .  S
C1723      C1974   1.510       .  S
C1723      H1727   1.110       .  S
C1723      H1728   1.111       .  S
C1723      H1729   1.110   1_556  S
C1726      H1730   1.106       .  S
C1726      H1731   1.107       .  S
C1726      H1732   1.111       .  S
C1733      C1734   1.415       .  A
C1733      C1738   1.408       .  A
C1733      H1740   1.075       .  S
C1734      C1735   1.435       .  A
C1735      C1742   1.514       .  S
C1735      C1736   1.404       .  A
C1736      C1737   1.393       .  A
C1736      H1993   1.085       .  S
C1737      C1874   1.474       .  S
C1737      C1738   1.407       .  A
C1738      C1739   1.508       .  S
C1739      H1743   1.111       .  S
C1739      H1744   1.110       .  S
C1739      H1745   1.111       .  S
H1741      C1988   1.085   1_554  S
C1742      H1746   1.111       .  S
C1742      H1747   1.101       .  S
C1742      H2000   1.111       .  S
H1748      C1994   1.111       .  S
C1749      C1750   1.393       .  A
C1749      C1754   1.402       .  A
C1749      H2008   1.086       .  S
C1750      C1885   1.487       .  S
C1750      C1751   1.417       .  A
C1751      C1752   1.416       .  A
C1752      C1753   1.413       .  A
C1752      H1757   1.080       .  S
C1753      C1754   1.435       .  A
C1754      C1755   1.514       .  S
C1755      H1759   1.111       .  S
C1755      H1760   1.101       .  S
C1755      H1761   1.111       .  S
H1756      C2001   1.086   1_554  S
C1758      H1762   1.110       .  S
C1758      H1763   1.107       .  S
C1758      H1764   1.110       .  S
C1765      C1766   1.549       .  S
C1765      C1771   1.544       .  S
C1765      C1769   1.571       .  S
C1765      C2005   1.548       .  S
C1766      H1773   1.085       .  S
C1766      C1767   1.365       .  D
C1767      C1768   1.535       .  S
C1767      C1784   1.516       .  S
C1768      C1772   1.534       .  S
C1768      C1770   1.542       .  S
C1768      H1774   1.049       .  S
C1769      H1775   1.082       .  S
C1769      C1770   1.382       .  D
C1770      C1818   1.527       .  S
C1771      H1776   1.084       .  S
C1771      C1772   1.361       .  D
C1772      C1791   1.512       .  S
C1777      C1778   1.547       .  S
C1777      C1783   1.549       .  S
C1777      C1781   1.567       .  S
C1777      C1986   1.542       .  S
C1778      H1785   1.085       .  S
C1778      C1779   1.364       .  D
C1779      C1780   1.538       .  S
C1779      C1808   1.515       .  S
C1780      C1784   1.539       .  S
C1780      C1782   1.541       .  S
C1780      H1786   1.048       .  S
C1781      H1787   1.080       .  S
C1781      C1782   1.373       .  D
C1782      C1830   1.524       .  S
C1783      H1788   1.084       .  S
C1783      C1784   1.363       .  D
C1789      C1790   1.557       .  S
C1789      C1795   1.550       .  S
C1789      C1793   1.554       .  S
C1789      C1970   1.545       .  S
C1790      H1797   1.076       .  S
C1790      C1791   1.362       .  D
C1791      C1792   1.532       .  S
C1792      C1796   1.538       .  S
C1792      C1794   1.540       .  S
C1792      H1798   1.050       .  S
C1793      H1799   1.084       .  S
C1793      C1794   1.371       .  D
C1794      C1842   1.519       .  S
C1795      H1800   1.084       .  S
C1795      C1796   1.365       .  D
C1796      C1803   1.515       .  S
C1801      C1802   1.545       .  S
C1801      C1807   1.552       .  S
C1801      C1805   1.567       .  S
C1801      C1954   1.540       .  S
C1802      H1809   1.085       .  S
C1802      C1803   1.363       .  D
C1803      C1804   1.535       .  S
C1804      C1808   1.534       .  S
C1804      C1806   1.542       .  S
C1804      H1810   1.044       .  S
C1805      H1811   1.082       .  S
C1805      C1806   1.374       .  D
C1806      C1854   1.524       .  S
C1807      H1812   1.084       .  S
C1807      C1808   1.364       .  D
C1813      C1814   1.552       .  S
C1813      C1819   1.565       .  S
C1813      C1817   1.559       .  S
C1813      C1941   1.555       .  S
C1814      H1821   1.084       .  S
C1814      C1815   1.365       .  D
C1815      C1816   1.535       .  S
C1815      C1844   1.519       .  S
C1816      C1820   1.534       .  S
C1816      C1818   1.543       .  S
C1816      H1822   1.044       .  S
C1817      H1823   1.084       .  S
C1817      C1818   1.370       .  D
C1819      H1824   1.077       .  S
C1819      C1820   1.369       .  D
C1820      C1827   1.520       .  S
C1825      C1826   1.551       .  S
C1825      C1831   1.558       .  S
C1825      C1829   1.558       .  S
C1825      C1925   1.553       .  S
C1826      H1833   1.084       .  S
C1826      C1827   1.365       .  D
C1827      C1828   1.537       .  S
C1828      C1832   1.537       .  S
C1828      C1830   1.542       .  S
C1828      H1834   1.050       .  S
C1829      H1835   1.083       .  S
C1829      C1830   1.375       .  D
C1831      H1836   1.075       .  S
C1831      C1832   1.360       .  D
C1832      C1851   1.515       .  S
C1837      C1838   1.553       .  S
C1837      C1843   1.547       .  S
C1837      C1841   1.559       .  S
C1837      C1906   1.542       .  S
C1838      H1845   1.081       .  S
C1838      C1839   1.360       .  D
C1839      C1840   1.534       .  S
C1839      C1856   1.512       .  S
C1840      C1844   1.538       .  S
C1840      C1842   1.542       .  S
C1840      H1846   1.049       .  S
C1841      H1847   1.084       .  S
C1841      C1842   1.374       .  D
C1843      H1848   1.085       .  S
C1843      C1844   1.365       .  D
C1849      C1850   1.551       .  S
C1849      C1855   1.556       .  S
C1849      C1853   1.557       .  S
C1849      C1890   1.552       .  S
C1850      H1857   1.083       .  S
C1850      C1851   1.368       .  D
C1851      C1852   1.532       .  S
C1852      C1856   1.531       .  S
C1852      C1854   1.541       .  S
C1852      H1858   1.049       .  S
C1853      H1859   1.085       .  S
C1853      C1854   1.375       .  D
C1855      H1860   1.080       .  S
C1855      C1856   1.364       .  D
O1861     Ni1869   1.920   1_655  S
O1861      C1871   1.282       .  A
O1862      C1872   1.282       .  A
O1863     Ni1869   1.921   1_655  S
O1863      C1873   1.281       .  A
O1864      C1874   1.280       .  A
O1865      C1874   1.281       .  A
O1866     Ni1870   1.916       .  S
O1866      C1873   1.281       .  A
O1867      C1872   1.281       .  A
O1868     Ni1870   1.919       .  S
O1868      C1871   1.282       .  A
Ni1869    Ni1870   2.386   1_455  S
C1872      C1922   1.487       .  S
C1873      C1909   1.481       .  S
O1875     Ni1883   1.932       .  S
O1876     Ni1883   1.928       .  S
O1876      C1886   1.284       .  A
O1877     Ni1883   1.929       .  S
O1878     Ni1883   1.925       .  S
O1878      C1888   1.282       .  A
O1879     Ni1884   1.924       .  S
O1879      C1888   1.281       .  A
O1880     Ni1884   1.922       .  S
O1881     Ni1884   1.926       .  S
O1881      C1886   1.283       .  A
O1882     Ni1884   1.928       .  S
Ni1883    Ni1884   2.383       .  S
C1886      C1893   1.504       .  S
C1887      C1938   1.495       .  S
C1889      C1890   1.412       .  A
C1889      C1894   1.407       .  A
C1889      H1896   1.080       .  S
C1890      C1891   1.424       .  A
C1891      C1898   1.509       .  S
C1891      C1892   1.410       .  A
C1892      C1893   1.408       .  A
C1892      H1897   1.084       .  S
C1893      C1894   1.419       .  A
C1894      C1895   1.509       .  S
C1895      H1899   1.111       .  S
C1895      H1900   1.110       .  S
C1895      H1901   1.110       .  S
C1898      H1902   1.106       .  S
C1898      H1903   1.111       .  S
C1898      H1904   1.111       .  S
C1905      C1906   1.415       .  A
C1905      C1910   1.400       .  A
C1905      H1912   1.080       .  S
C1906      C1907   1.425       .  A
C1907      C1914   1.508       .  S
C1907      C1908   1.408       .  A
C1908      C1909   1.403       .  A
C1908      H1913   1.085       .  S
C1909      C1910   1.409       .  A
C1910      C1911   1.510       .  S
C1911      H1915   1.109       .  S
C1911      H1916   1.111       .  S
C1911      H1917   1.111       .  S
C1914      H1918   1.105       .  S
C1914      H1919   1.110       .  S
C1914      H1920   1.111       .  S
C1921      C1922   1.403       .  A
C1921      C1926   1.410       .  A
C1921      H1928   1.084       .  S
C1922      C1923   1.409       .  A
C1923      C1930   1.512       .  S
C1923      C1924   1.402       .  A
C1924      C1925   1.417       .  A
C1924      H1929   1.070       .  S
C1925      C1926   1.429       .  A
C1926      C1927   1.512       .  S
C1927      H1931   1.111       .  S
C1927      H1932   1.106       .  S
C1927      H1933   1.107       .  S
C1930      H1934   1.109       .  S
C1930      H1935   1.111       .  S
C1930      H1936   1.111       .  S
C1937      C1938   1.403       .  A
C1937      C1942   1.409       .  A
C1938      C1939   1.413       .  A
C1939      C1946   1.509       .  S
C1939      C1940   1.409       .  A
C1940      C1941   1.416       .  A
C1940      H1945   1.073       .  S
C1941      C1942   1.430       .  A
C1942      C1943   1.515       .  S
C1943      H1947   1.111       .  S
C1943      H1948   1.106       .  S
C1943      H1949   1.105       .  S
C1946      H1950   1.110       .  S
C1946      H1951   1.111       .  S
C1946      H1952   1.111       .  S
C1953      C1954   1.412       .  A
C1953      C1958   1.408       .  A
C1953      H1960   1.080       .  S
C1954      C1955   1.431       .  A
C1955      C1962   1.512       .  S
C1955      C1956   1.403       .  A
C1956      C1957   1.396       .  A
C1957      C1958   1.410       .  A
C1958      C1959   1.507       .  S
C1959      H1963   1.111       .  S
C1959      H1964   1.110       .  S
C1959      H1965   1.106       .  S
C1962      H1966   1.104       .  S
C1962      H1967   1.110   1_556  S
C1969      C1970   1.413       .  A
C1969      C1974   1.403       .  A
C1969      H1976   1.075       .  S
C1970      C1971   1.425       .  A
C1971      C1978   1.513       .  S
C1971      C1972   1.407       .  A
C1972      C1973   1.405       .  A
C1972      H1977   1.084       .  S
C1973      C1974   1.413       .  A
C1975      H1979   1.110       .  S
C1975      H1980   1.111       .  S
C1975      H1981   1.111       .  S
C1978      H1982   1.105       .  S
C1978      H1983   1.108       .  S
C1978      H1984   1.111       .  S
C1985      C1986   1.414       .  A
C1985      C1990   1.406       .  A
C1985      H1992   1.076       .  S
C1986      C1987   1.434       .  A
C1987      C1994   1.513       .  S
C1987      C1988   1.403       .  A
C1988      C1989   1.393       .  A
C1989      C1990   1.407       .  A
C1990      C1991   1.509       .  S
C1991      H1995   1.111       .  S
C1991      H1996   1.110       .  S
C1991      H1997   1.111       .  S
C1994      H1998   1.111   1_556  S
C1994      H1999   1.102       .  S
C2001      C2002   1.395       .  A
C2001      C2006   1.403       .  A
C2002      C2003   1.415       .  A
C2003      C2004   1.414       .  A
C2004      C2005   1.413       .  A
C2004      H2009   1.079       .  S
C2005      C2006   1.435       .  A
C2006      C2007   1.514       .  S
C2007      H2011   1.111   1_556  S
C2007      H2012   1.102       .  S
C2007      H2013   1.111       .  S
C2010      H2014   1.110       .  S
C2010      H2015   1.107       .  S
C2010      H2016   1.110       .  S
