geometry optimzed in LAMMPS
_audit_creation_date              2020-11-30 
_audit_creation_method            'lammps2cif' 
_symmetry_space_group_name_H-M    'P1' 
_symmetry_Int_Tables_number       1 
_symmetry_cell_setting            triclinic 
loop_ 
_symmetry_equiv_pos_as_xyz 
  x,y,z 
_cell_length_a                    34.09842979 
_cell_length_b                    34.07348255479749 
_cell_length_c                    88.49205664957384 
_cell_angle_alpha                 90.00772635587475 
_cell_angle_beta                  90.04954235146168 
_cell_angle_gamma                 120.13433204904928 
loop_ 
_atom_site_label 
_atom_site_type_symbol 
_atom_site_fract_x 
_atom_site_fract_y 
_atom_site_fract_z 
_atom_site_charge 
C1          C  0.21657896  0.91955812  0.13638832     0.82000
N2          N  0.19425254  0.91294691  0.12306309    -0.76300
C3          C  0.19258352  0.94780089  0.11625533     0.84500
N4          N  0.21259244  0.98905681  0.12305180    -0.76200
C5          C  0.23466466  0.99595456  0.13640119     0.84600
N6          N  0.23666156  0.96108319  0.14299297    -0.78000
C7          C  0.29476191  0.32359276  0.20701782     0.82000
N8          N  0.29362977  0.29212630  0.19737824    -0.76300
C9          C  0.30161289  0.25934896  0.20254416     0.84500
N10         N  0.31147493  0.25887895  0.21732574    -0.76200
C11         C  0.31301897  0.29024017  0.22710947     0.84600
N12         N  0.30444856  0.32271316  0.22188012    -0.78000
C13         C  0.96196294  0.27494721  0.14291450     0.82000
N14         N  0.92908807  0.24552308  0.15233339    -0.76300
C15         C  0.89738193  0.20391828  0.14737412     0.84500
N16         N  0.89837927  0.19214455  0.13279936    -0.76200
C17         C  0.93103123  0.22157588  0.12324182     0.84600
N18         N  0.96322765  0.26281758  0.12840619    -0.78000
C19         C  0.55440723  0.94771694  0.21246264     0.82000
N20         N  0.59476023  0.96658974  0.20522346    -0.76300
C21         C  0.63187003  0.00253019  0.21129013     0.84500
N22         N  0.62834713  0.01931528  0.22480891    -0.76200
C23         C  0.58811664  0.00045901  0.23225379     0.84600
N24         N  0.55105251  0.96485720  0.22592087    -0.78000
C25         C  0.89407606  0.55864293  0.20469704     0.82000
N26         N  0.87943271  0.54268072  0.21884990    -0.76300
C27         C  0.83770973  0.53358810  0.22337317     0.84500
N28         N  0.81090185  0.54072489  0.21377355    -0.76200
C29         C  0.82516847  0.55632362  0.19956098     0.84600
N30         N  0.86685790  0.56509072  0.19506538    -0.78000
C31         C  0.57992438  0.65937973  0.13460806     0.82000
N32         N  0.59364671  0.67875408  0.12074464    -0.76300
C33         C  0.62951553  0.67977491  0.11366589     0.84500
N34         N  0.65183318  0.66132942  0.12071302    -0.76200
C35         C  0.63847004  0.64161887  0.13447377     0.84600
N36         N  0.60255011  0.64078995  0.14136247    -0.78000
C37         C  0.24043930  0.65828751  0.17616836     0.04100
C38         C  0.20284105  0.61441978  0.17725541     0.04100
C39         C  0.20923058  0.57677681  0.17719974     0.04100
C40         C  0.25319618  0.58292895  0.17688666     0.04100
C41         C  0.29096125  0.62692506  0.17590910     0.04100
C42         C  0.28448817  0.66460800  0.17620605     0.04100
O43         O  0.50849094  0.22342184  0.36765199    -0.76700
C44         C  0.65341015  0.27182286  0.36501895     0.84300
O45         O  0.57759767  0.37811907  0.35184998    -0.77800
O46         O  0.66931653  0.33836357  0.31994319    -0.79300
O47         O  0.53603506  0.18859771  0.31785556    -0.79100
O48         O  0.47211169  0.18707880  0.34688026    -0.77700
Zn49       Zn  0.56720349  0.27654322  0.36119507     1.55700
O50         O  0.61166494  0.22663370  0.31914494    -0.79100
Cd51       Cd  0.51785308  0.22801165  0.33061373     1.59700
Cd52       Cd  0.57662163  0.33960522  0.33351162     1.59600
O53         O  0.48376969  0.25083447  0.31733100    -0.79100
O54         O  0.57245733  0.28131160  0.33966293    -1.89600
Cd55       Cd  0.62851331  0.28169992  0.33286097     1.59900
O56         O  0.52163856  0.32610686  0.32044395    -0.79100
O57         O  0.66434908  0.27795193  0.35109999    -0.77700
C58         C  0.57330292  0.36829255  0.36586669     0.84800
C59         C  0.47408914  0.19114966  0.36119287     0.84500
O60         O  0.61729617  0.26983906  0.36980895    -0.76700
C61         C  0.57450884  0.19346693  0.31437212     0.85300
O62         O  0.56961043  0.33123975  0.37048942    -0.76800
C63         C  0.48901619  0.29003926  0.31484938     0.85400
C64         C  0.66491992  0.37154543  0.31552370     0.85700
O65         O  0.63233077  0.37681909  0.31996083    -0.79200
C66         C  0.54206279  0.87601983  0.52569856     0.82000
N67         N  0.51079400  0.87253520  0.51548311    -0.76300
C68         C  0.46761465  0.85857435  0.51987715     0.84500
N69         N  0.45600125  0.84763553  0.53458884    -0.76200
C70         C  0.48687726  0.85067971  0.54492137     0.84600
N71         N  0.53006417  0.86521255  0.54039302    -0.78000
C72         C  0.21645140  0.96006387  0.45949527     0.82000
N73         N  0.23252137  0.97981856  0.44583977    -0.76300
C74         C  0.26602258  0.97641941  0.43875999     0.84500
N75         N  0.28363843  0.95293180  0.44558487    -0.76200
C76         C  0.26785949  0.93278653  0.45921254     0.84600
N77         N  0.23443865  0.93670689  0.46607314    -0.78000
C78         C  0.19940378  0.29185303  0.54311219     0.82000
N79         N  0.19197746  0.30408072  0.55692596    -0.76300
C80         C  0.22546932  0.34068178  0.56418007     0.84500
N81         N  0.26643050  0.36549341  0.55735231    -0.76200
C82         C  0.27419268  0.35356189  0.54352080     0.84600
N83         N  0.24047690  0.31662418  0.53648890    -0.78000
C84         C  0.61053435  0.60985254  0.47187101     0.82000
N85         N  0.60921991  0.59482275  0.45751708    -0.76300
C86         C  0.57271679  0.55550759  0.45263298     0.84500
N87         N  0.53778302  0.53126504  0.46229100    -0.76200
C88         C  0.53906253  0.54578057  0.47664124     0.84600
N89         N  0.57545777  0.58491405  0.48132521    -0.78000
C90         C  0.93504628  0.66219497  0.54660278     0.82000
N91         N  0.91353341  0.61977648  0.54059013    -0.76300
C92         C  0.91647046  0.58559949  0.54737317     0.84500
N93         N  0.94118760  0.59426679  0.56021440    -0.76200
C94         C  0.96271120  0.63634278  0.56640377     0.84600
N95         N  0.95962930  0.67020436  0.55948710    -0.78000
C96         C  0.84778597  0.25451026  0.47589177     0.82000
N97         N  0.85393765  0.28759507  0.48578941    -0.76300
C98         C  0.84701321  0.32177497  0.48136316     0.84500
N99         N  0.83400623  0.32260919  0.46696040    -0.76200
C100        C  0.82769479  0.28990822  0.45692968     0.84600
N101        N  0.83445775  0.25574821  0.46151404    -0.78000
C102        C  0.85995505  0.95259380  0.50289218     0.04100
C103        C  0.89789683  0.99680117  0.50254478     0.04100
C104        C  0.94194828  0.00300267  0.50292960     0.04100
C105        C  0.94795130  0.96519682  0.50300529     0.04100
C106        C  0.91029002  0.92141312  0.50415448     0.04100
C107        C  0.86626728  0.91480659  0.50337255     0.04100
C108        C  0.53917776  0.59157527  0.80116069     0.82000
N109        N  0.51718082  0.58670152  0.78787571    -0.76300
C110        C  0.51173757  0.62082033  0.78234183     0.84500
N111        N  0.52811387  0.65983082  0.79040137    -0.76200
C112        C  0.55020343  0.66512748  0.80365173     0.84600
N113        N  0.55586924  0.63100602  0.80898000    -0.78000
C114        C  0.65282117  0.01409562  0.87041285     0.82000
N115        N  0.66895086  0.01577173  0.88459039    -0.76300
C116        C  0.67415477  0.98127728  0.88990692     0.84500
N117        N  0.66324771  0.94521400  0.88080422    -0.76200
C118        C  0.64721981  0.94309989  0.86664663     0.84600
N119        N  0.64196260  0.97764089  0.86148064    -0.78000
C120        C  0.31008222  0.94355004  0.80721267     0.82000
N121        N  0.31691673  0.92951572  0.79358759    -0.76300
C122        C  0.28365309  0.89057100  0.78727275     0.84500
N123        N  0.24375557  0.86597910  0.79468730    -0.76200
C124        C  0.23685977  0.87962622  0.80829326     0.84600
N125        N  0.27009784  0.91849633  0.81447799    -0.78000
C126        C  0.86566763  0.65102545  0.86573962     0.82000
N127        N  0.86157804  0.66704112  0.87934977    -0.76300
C128        C  0.89723057  0.70474567  0.88532937     0.84500
N129        N  0.93683826  0.72661135  0.87758103    -0.76200
C130        C  0.94104140  0.71119943  0.86389226     0.84600
N131        N  0.90538628  0.67321539  0.85809944    -0.78000
C132        C  0.23727631  0.24330839  0.87505763     0.82000
N133        N  0.21980447  0.22069470  0.88822573    -0.76300
C134        C  0.18171393  0.21762386  0.89418709     0.84500
N135        N  0.16107812  0.23735046  0.88691223    -0.76200
C136        C  0.17852615  0.26051083  0.87390279     0.84600
N137        N  0.21659784  0.26347150  0.86800672    -0.78000
C138        C  0.94183645  0.38338650  0.81248855     0.82000
N139        N  0.96774719  0.37275602  0.82130252    -0.76300
C140        C  0.00941790  0.38197735  0.81650246     0.84500
N141        N  0.02437243  0.40147464  0.80281760    -0.76200
C142        C  0.99879078  0.41200162  0.79386703     0.84600
N143        N  0.95728332  0.40284458  0.79877284    -0.78000
C144        C  0.61536858  0.34193543  0.83881080     0.04100
C145        C  0.56993549  0.33142934  0.83899899     0.04100
C146        C  0.53512607  0.28610249  0.84043031     0.04100
C147        C  0.54581486  0.25132305  0.84093515     0.04100
C148        C  0.59127423  0.26192093  0.84084212     0.04100
C149        C  0.62599714  0.30715421  0.83932518     0.04100
O150        O  0.84903720  0.90358856  0.03534810    -0.76700
C151        C  0.98971942  0.93551384  0.03264836     0.84300
O152        O  0.92948199  0.05670960  0.01941359    -0.77800
O153        O  0.01297480  0.00495407  0.98884474    -0.79300
O154        O  0.86741229  0.86640892  0.98414137    -0.79100
O155        O  0.80897525  0.86891032  0.01484781    -0.77700
Zn156      Zn  0.91018121  0.95173896  0.02878789     1.55700
O157        O  0.94260417  0.89611487  0.98506127    -0.79100
Cd158      Cd  0.85586753  0.90751129  0.99842914     1.59700
Cd159      Cd  0.92527815  0.01721683  0.00108172     1.59600
O160        O  0.82702138  0.93665255  0.98547665    -0.79100
O161        O  0.91422801  0.95610670  0.00728926    -1.89600
Cd162      Cd  0.96579467  0.94839850  0.00049520     1.59900
O163        O  0.87456897  0.01130191  0.98700846    -0.79100
O164        O  0.99811573  0.93739098  0.01854536    -0.77700
C165        C  0.92713125  0.04741191  0.03342599     0.84800
C166        C  0.81247228  0.87376304  0.02913968     0.84500
O167        O  0.95692054  0.93966302  0.03751560    -0.76700
C168        C  0.90370540  0.86793304  0.97971481     0.85300
O169        O  0.92023600  0.00912884  0.03799622    -0.76800
C170        C  0.83858182  0.97730316  0.98194881     0.85400
C171        C  0.01466445  0.04172372  0.98491038     0.85700
O172        O  0.98437407  0.05098765  0.98893131    -0.79200
O173        O  0.29908758  0.66483349  0.63769722    -0.76700
C174        C  0.21514193  0.52356349  0.64784629     0.84300
O175        O  0.16878581  0.65545209  0.66182671    -0.77800
O176        O  0.18452402  0.54491218  0.69353520    -0.79300
O177        O  0.34623578  0.64906896  0.68621738    -0.79100
O178        O  0.34900305  0.70884790  0.65505689    -0.77700
Zn179      Zn  0.24185293  0.62306536  0.64849226     1.55700
O180        O  0.29323716  0.57695520  0.68988385    -0.79100
Cd181      Cd  0.31307416  0.67670204  0.67457136     1.59700
Cd182      Cd  0.20476491  0.64454652  0.67863351     1.59600
O183        O  0.31267929  0.72439456  0.68883327    -0.79100
O184        O  0.24926540  0.62870139  0.66994379    -1.89600
Cd185      Cd  0.23736142  0.56962035  0.67848767     1.59900
O186        O  0.23943090  0.70321930  0.69118874    -0.79100
O187        O  0.22023802  0.52109313  0.66198526    -0.77700
C188        C  0.17078596  0.65204572  0.64754453     0.84800
C189        C  0.33776734  0.69781614  0.64129434     0.84500
O190        O  0.22176688  0.56015178  0.64172683    -0.76700
C191        C  0.33329508  0.61002000  0.69189052     0.85300
O192        O  0.19673268  0.63972431  0.64154777    -0.76800
C193        C  0.28115702  0.72982165  0.69430168     0.85400
C194        C  0.15703269  0.55746115  0.69798654     0.85700
O195        O  0.15948263  0.59384352  0.69308052    -0.79200
C196        C  0.74610076  0.33112954  0.84453579     0.14500
C197        C  0.76136329  0.33855440  0.82949052     0.01400
C198        C  0.73178322  0.33482679  0.81781157     0.16400
C199        C  0.68764637  0.32421736  0.82114185     0.25800
C200        C  0.67271179  0.31768103  0.83617642    -0.40500
C201        C  0.70195158  0.32100039  0.84787396     0.32900
C202        C  0.80828954  0.35083794  0.82588285     0.01500
F203        F  0.74556940  0.34096944  0.80317417    -0.12800
F204        F  0.68784660  0.31489854  0.86245853    -0.13400
C205        C  0.82406272  0.32088096  0.82922446     0.16400
C206        C  0.86803327  0.33191333  0.82519087     0.25800
C207        C  0.89644783  0.37278111  0.81757612    -0.40500
C208        C  0.88072775  0.40293500  0.81441304     0.32800
C209        C  0.83702360  0.39212249  0.81861346     0.14500
F210        F  0.79631608  0.28027015  0.83588914    -0.12800
F211        F  0.90787672  0.44318220  0.80745006    -0.13300
F212        F  0.88203042  0.30175662  0.82813491    -0.15600
F213        F  0.82269585  0.42200223  0.81561749    -0.14200
F214        F  0.77427354  0.33467873  0.85596727    -0.14200
F215        F  0.65923267  0.32006859  0.80969792    -0.15600
C216        C  0.00256103  0.44044310  0.75224036     0.14500
C217        C  0.04950635  0.46613267  0.74985798     0.01400
C218        C  0.07934737  0.47524736  0.76197757     0.16400
C219        C  0.06271887  0.45846004  0.77632266     0.25800
C220        C  0.01566216  0.43196482  0.77881580    -0.40500
C221        C  0.98566481  0.42338667  0.76665140     0.32900
C222        C  0.06851491  0.48379206  0.73482548     0.01500
F223        F  0.12487367  0.50069102  0.75987586    -0.12800
F224        F  0.94013646  0.39710506  0.76854939    -0.13400
C225        C  0.06924431  0.52258658  0.72921431     0.16400
C226        C  0.09613557  0.54547159  0.71670609     0.25800
C227        C  0.12277316  0.52971073  0.70963024    -0.40500
C228        C  0.11889755  0.48855672  0.71470329     0.32800
C229        C  0.09219152  0.46607163  0.72722172     0.14500
F230        F  0.04632540  0.53999951  0.73649029    -0.12800
F231        F  0.14242644  0.47083035  0.70803236    -0.13300
F232        F  0.09786974  0.58432684  0.71212306    -0.15600
F233        F  0.09125746  0.42812264  0.73244557    -0.14200
F234        F  0.97332483  0.43096834  0.74055362    -0.14200
F235        F  0.09276323  0.46859735  0.78780406    -0.15600
C236        C  0.34485859  0.28306309  0.85226977     0.14500
C237        C  0.35707480  0.25088377  0.85634197     0.01400
C238        C  0.32894705  0.21508210  0.86600366     0.16400
C239        C  0.28973645  0.21225987  0.87196188     0.25800
C240        C  0.27797801  0.24534351  0.86832124    -0.40500
C241        C  0.30566381  0.28041212  0.85819907     0.32900
C242        C  0.40167088  0.25767393  0.85194964     0.01500
F243        F  0.33998044  0.18324245  0.86985981    -0.12800
F244        F  0.29608724  0.31339156  0.85452283    -0.13400
C245        C  0.43445039  0.26775205  0.86318326     0.16400
C246        C  0.47769459  0.27678634  0.85925459     0.25800
C247        C  0.48874883  0.27580324  0.84406058    -0.40500
C248        C  0.45601596  0.26525564  0.83277168     0.32800
C249        C  0.41254005  0.25631852  0.83670669     0.14500
F250        F  0.42482938  0.27004393  0.87793754    -0.12800
F251        F  0.46625834  0.26388477  0.81803990    -0.13300
F252        F  0.50914868  0.28701030  0.87026971    -0.15600
F253        F  0.38105062  0.24623013  0.82572557    -0.14200
F254        F  0.37216636  0.31839011  0.84314363    -0.14200
F255        F  0.26339452  0.17706796  0.88127418    -0.15600
C256        C  0.09477450  0.34679534  0.82720559     0.14500
C257        C  0.08774671  0.34011401  0.84279894     0.01400
C258        C  0.05631304  0.34899963  0.84994926     0.16400
C259        C  0.03130530  0.36347713  0.84149335     0.25800
C260        C  0.03730590  0.36906549  0.82573031    -0.40500
C261        C  0.06987783  0.36113878  0.81871253     0.32900
C262        C  0.11112639  0.32092493  0.85135346     0.01500
F263        F  0.04979531  0.34340818  0.86511099    -0.12800
F264        F  0.07643650  0.36534147  0.80353442    -0.13400
C265        C  0.15853450  0.34509117  0.85278228     0.16400
C266        C  0.18070883  0.32537717  0.86009242     0.25800
C267        C  0.15558493  0.28141474  0.86612100    -0.40500
C268        C  0.10811384  0.25741960  0.86473305     0.32800
C269        C  0.08606098  0.27701927  0.85734453     0.14500
F270        F  0.18317308  0.38777306  0.84714564    -0.12800
F271        F  0.08324566  0.21432809  0.87001400    -0.13300
F272        F  0.22652821  0.34952983  0.86156747    -0.15600
F273        F  0.04034239  0.25260099  0.85556720    -0.14200
F274        F  0.12448186  0.33751685  0.82008921    -0.14200
F275        F  0.00146459  0.37222270  0.84877413    -0.15600
C276        C  0.17210877  0.17205013  0.93384442     0.14500
C277        C  0.12497441  0.14840690  0.93582555     0.01400
C278        C  0.09658667  0.14640971  0.92401772     0.16400
C279        C  0.11510371  0.16850208  0.91040642     0.25800
C280        C  0.16241857  0.19286032  0.90838814    -0.40500
C281        C  0.19082078  0.19418667  0.92018292     0.32900
C282        C  0.10462873  0.12540548  0.95013873     0.01500
F283        F  0.05080362  0.12261993  0.92566712    -0.12800
F284        F  0.23662020  0.21821188  0.91869555    -0.13400
C285        C  0.08361116  0.14243341  0.95954191     0.16400
C286        C  0.05715072  0.11673227  0.97168923     0.25800
C287        C  0.05074892  0.07311535  0.97445767    -0.40500
C288        C  0.07492563  0.05779925  0.96563527     0.32800
C289        C  0.10158183  0.08382905  0.95353892     0.14500
F290        F  0.08703265  0.18310126  0.95649249    -0.12800
F291        F  0.07032924  0.01629792  0.96794906    -0.13300
F292        F  0.03625459  0.13382005  0.98029725    -0.15600
F293        F  0.12180774  0.06701081  0.94448189    -0.14200
F294        F  0.19987060  0.17444540  0.94525304    -0.14200
F295        F  0.08667335  0.16532871  0.89910534    -0.15600
C296        C  0.80193061  0.53671963  0.84663153     0.14500
C297        C  0.75695561  0.52467419  0.84967967     0.01400
C298        C  0.74756086  0.55506326  0.85733992     0.16400
C299        C  0.78294144  0.59669782  0.86233811     0.25800
C300        C  0.82818688  0.60848496  0.85965522    -0.40500
C301        C  0.83738644  0.57837662  0.85157328     0.32900
C302        C  0.72021441  0.47843469  0.84648840     0.01500
F303        F  0.70405377  0.54379758  0.86027103    -0.12800
F304        F  0.88065556  0.58794678  0.84924446    -0.13400
C305        C  0.69757248  0.44935527  0.85862666     0.16400
C306        C  0.66366164  0.40493258  0.85591826     0.25800
C307        C  0.65163658  0.38919997  0.84106353    -0.40500
C308        C  0.67386416  0.41817723  0.82885105     0.32800
C309        C  0.70850774  0.46269305  0.83156829     0.14500
F310        F  0.70904304  0.46384583  0.87311026    -0.12800
F311        F  0.66201697  0.40340367  0.81442555    -0.13300
F312        F  0.64230469  0.37702816  0.86779423    -0.15600
F313        F  0.73038301  0.49050991  0.81973520    -0.14200
F314        F  0.81151554  0.50703183  0.83963688    -0.14200
F315        F  0.77295456  0.62532990  0.86985173    -0.15600
C316        C  0.85438778  0.74343801  0.91823842     0.14500
C317        C  0.89141500  0.75953664  0.92819311     0.01400
C318        C  0.92863539  0.75452298  0.92444702     0.16400
C319        C  0.92998492  0.73579073  0.91059692     0.25800
C320        C  0.89381924  0.72123634  0.90034675    -0.40500
C321        C  0.85546306  0.72411320  0.90439672     0.32900
C322        C  0.89398667  0.78619430  0.94164876     0.01500
F323        F  0.96424148  0.76893660  0.93409961    -0.12800
F324        F  0.82033573  0.71075545  0.89460055    -0.13400
C325        C  0.86367144  0.76651185  0.95376368     0.16400
C326        C  0.86710784  0.79274476  0.96643035     0.25800
C327        C  0.90121241  0.83866896  0.96711905    -0.40500
C328        C  0.93150895  0.85807471  0.95498519     0.32800
C329        C  0.92768587  0.83214038  0.94232201     0.14500
F330        F  0.83122820  0.72196338  0.95336658    -0.12800
F331        F  0.96353672  0.90282198  0.95507804    -0.13300
F332        F  0.83771690  0.77327446  0.97808787    -0.15600
F333        F  0.95619037  0.85218620  0.93047647    -0.14200
F334        F  0.81845256  0.74875200  0.92155532    -0.14200
F335        F  0.96675920  0.73199748  0.90717330    -0.15600
C336        C  0.36596285  0.05533585  0.82793826     0.14500
C337        C  0.41182407  0.06834927  0.82661497     0.01400
C338        C  0.42434327  0.03962538  0.81938797     0.16400
C339        C  0.39120384  0.99866225  0.81311710     0.25800
C340        C  0.34521014  0.98603322  0.81408169    -0.40500
C341        C  0.33278486  0.01437159  0.82174245     0.32900
C342        C  0.44654801  0.11458612  0.83076560     0.01500
F343        F  0.46874938  0.05190874  0.81812155    -0.12800
F344        F  0.28871008  0.00359211  0.82253850    -0.13400
C345        C  0.45532833  0.12833643  0.84595995     0.16400
C346        C  0.48736381  0.17328688  0.84951445     0.25800
C347        C  0.51026412  0.20435382  0.83785729    -0.40500
C348        C  0.50110859  0.19053093  0.82273073     0.32800
C349        C  0.46946180  0.14591701  0.81919924     0.14500
F350        F  0.43318845  0.09821134  0.85723542    -0.12800
F351        F  0.52313904  0.22048964  0.81138804    -0.13300
F352        F  0.49619325  0.18645397  0.86418916    -0.15600
F353        F  0.46049014  0.13332793  0.80446682    -0.14200
F354        F  0.35358085  0.08353407  0.83448867    -0.14200
F355        F  0.40399909  0.97131693  0.80618261    -0.15600
C356        C  0.15142327  0.82713116  0.83979455     0.14500
C357        C  0.11064920  0.80382450  0.83166248     0.01400
C358        C  0.11164696  0.80416156  0.81579485     0.16400
C359        C  0.15283241  0.82811494  0.80815575     0.25800
C360        C  0.19357969  0.85261795  0.81629453    -0.40500
C361        C  0.19253868  0.85162822  0.83218721     0.32900
C362        C  0.06706917  0.78010653  0.83976729     0.01500
F363        F  0.07258643  0.78248160  0.80769237    -0.12800
F364        F  0.23138074  0.87369894  0.84038844    -0.13400
C365        C  0.05538527  0.80389950  0.85006396     0.16400
C366        C  0.01448470  0.78155702  0.85792594     0.25800
C367        C  0.98425526  0.73499015  0.85550086    -0.40500
C368        C  0.99586525  0.71140134  0.84498645     0.32800
C369        C  0.03702909  0.73375709  0.83726641     0.14500
F370        F  0.08332422  0.84909130  0.85230580    -0.12800
F371        F  0.96805422  0.66639561  0.84241333    -0.13300
F372        F  0.00413603  0.80588868  0.86763306    -0.15600
F373        F  0.04802116  0.70986420  0.82758060    -0.14200
F374        F  0.15141231  0.82582900  0.85513402    -0.14200
F375        F  0.15258403  0.82872137  0.79281217    -0.15600
C376        C  0.32320017  0.88839436  0.74731629     0.14500
C377        C  0.29953296  0.84165475  0.74438543     0.01400
C378        C  0.27155989  0.81133690  0.75551324     0.16400
C379        C  0.26694232  0.82734456  0.76946800     0.25800
C380        C  0.29034725  0.87423344  0.77257143    -0.40500
C381        C  0.31883291  0.90470310  0.76138465     0.32900
C382        C  0.30318033  0.82315810  0.72981653     0.01500
F383        F  0.24847830  0.76596738  0.75278492    -0.12800
F384        F  0.34136455  0.95016614  0.76387735    -0.13400
C385        C  0.33072112  0.80360148  0.72868392     0.16400
C386        C  0.32587141  0.77565491  0.71644540     0.25800
C387        C  0.29282459  0.76645027  0.70531760    -0.40500
C388        C  0.26733587  0.78849983  0.70599940     0.32800
C389        C  0.27265499  0.81687566  0.71817264     0.14500
F390        F  0.35974322  0.80876698  0.74004432    -0.12800
F391        F  0.23592716  0.78098662  0.69522772    -0.13300
F392        F  0.35043808  0.75428621  0.71625075    -0.15600
F393        F  0.24570485  0.83553694  0.71918198    -0.14200
F394        F  0.35021350  0.91802830  0.73655508    -0.14200
F395        F  0.24002262  0.79668618  0.78001886    -0.15600
C396        C  0.67038856  0.13155262  0.86416572     0.14500
C397        C  0.63263058  0.12206071  0.85520609     0.01400
C398        C  0.60231101  0.07717254  0.85083923     0.16400
C399        C  0.60926205  0.04202446  0.85557311     0.25800
C400        C  0.64652373  0.05132207  0.86484686    -0.40500
C401        C  0.67723312  0.09644782  0.86899742     0.32900
C402        C  0.62320087  0.15853815  0.85127961     0.01500
F403        F  0.56494499  0.06721110  0.84252011    -0.12800
F404        F  0.71419035  0.10666279  0.87757983    -0.13400
C405        C  0.62139094  0.16975720  0.83609949     0.16400
C406        C  0.61119454  0.20365473  0.83255415     0.25800
C407        C  0.60247819  0.22624076  0.84416276    -0.40500
C408        C  0.60437185  0.21509528  0.85929110     0.32800
C409        C  0.61477576  0.18154774  0.86284182     0.14500
F410        F  0.62990384  0.14816475  0.82478506    -0.12800
F411        F  0.59609170  0.23686864  0.87061454    -0.13300
F412        F  0.60963233  0.21434708  0.81787787    -0.15600
F413        F  0.61573222  0.17081269  0.87756505    -0.14200
F414        F  0.70053036  0.17489368  0.86826893    -0.14200
F415        F  0.57840780  0.99872533  0.85166045    -0.15600
C416        C  0.71312821  0.94705960  0.92511280     0.14500
C417        C  0.73277824  0.98728196  0.93358067     0.01400
C418        C  0.73093835  0.02497184  0.92811705     0.16400
C419        C  0.71096453  0.02294990  0.91410818     0.25800
C420        C  0.69237468  0.98295611  0.90530927    -0.40500
C421        C  0.69283384  0.94468798  0.91122972     0.32900
C422        C  0.75814149  0.99031212  0.94746712     0.01500
F423        F  0.74909573  0.06398454  0.93627204    -0.12800
F424        F  0.67441886  0.90482689  0.90355633    -0.13400
C425        C  0.80485818  0.02156393  0.94829939     0.16400
C426        C  0.83072426  0.01910767  0.96010335     0.25800
C427        C  0.81028961  0.98486999  0.97110669    -0.40500
C428        C  0.76311785  0.95530834  0.97073435     0.32800
C429        C  0.73718840  0.95826984  0.95906103     0.14500
F430        F  0.82605391  0.05222878  0.93707199    -0.12800
F431        F  0.74229412  0.92282548  0.98147033    -0.13300
F432        F  0.87627445  0.04788826  0.96006572    -0.15600
F433        F  0.69183738  0.92862618  0.95871190    -0.14200
F434        F  0.71536869  0.91042190  0.92998230    -0.14200
F435        F  0.71104818  0.06062765  0.90908330    -0.15600
C436        C  0.50866088  0.47224401  0.81169052     0.14500
C437        C  0.54692526  0.47974114  0.81997815     0.01400
C438        C  0.58275512  0.52430134  0.82218936     0.16400
C439        C  0.58040544  0.56090441  0.81606390     0.25800
C440        C  0.54234199  0.55329218  0.80752231    -0.40500
C441        C  0.50648468  0.50861280  0.80542286     0.32900
C442        C  0.55054342  0.44068884  0.82530833     0.01500
F443        F  0.62062350  0.53220326  0.82981751    -0.12800
F444        F  0.46875211  0.50009103  0.79758663    -0.13400
C445        C  0.54895177  0.40920356  0.81473314     0.16400
C446        C  0.55322243  0.37260158  0.81946291     0.25800
C447        C  0.55924249  0.36692093  0.83481050    -0.40500
C448        C  0.56002915  0.39773630  0.84549719     0.32800
C449        C  0.55585126  0.43466514  0.84075261     0.14500
F450        F  0.54493394  0.41490812  0.79973487    -0.12800
F451        F  0.56577467  0.39253670  0.86039156    -0.13300
F452        F  0.55333602  0.34352243  0.80898786    -0.15600
F453        F  0.55705432  0.46452338  0.85116299    -0.14200
F454        F  0.47326491  0.42949179  0.80969224    -0.14200
F455        F  0.61597074  0.60357626  0.81804368    -0.15600
C456        C  0.62836172  0.86920313  0.83239592     0.14500
C457        C  0.61017507  0.82631719  0.83910568     0.01400
C458        C  0.60486973  0.82181683  0.85480523     0.16400
C459        C  0.61716998  0.85989561  0.86378228     0.25800
C460        C  0.63494276  0.90307835  0.85712520    -0.40500
C461        C  0.64077391  0.90746560  0.84134664     0.32900
C462        C  0.59551978  0.78585279  0.82972149     0.01500
F463        F  0.58694318  0.78032604  0.86138322    -0.12800
F464        F  0.65938434  0.94880831  0.83462960    -0.13400
C465        C  0.62352183  0.76697056  0.82806173     0.16400
C466        C  0.60881198  0.72752259  0.81953520     0.25800
C467        C  0.56605094  0.70685409  0.81250974    -0.40500
C468        C  0.53809263  0.72595838  0.81420975     0.32800
C469        C  0.55274764  0.76519238  0.82282170     0.14500
F470        F  0.66503735  0.78684562  0.83469824    -0.12800
F471        F  0.49595063  0.70569353  0.80801546    -0.13300
F472        F  0.63661458  0.71001753  0.81789720    -0.15600
F473        F  0.52490736  0.78256757  0.82471973    -0.14200
F474        F  0.63420019  0.87389198  0.81719331    -0.14200
F475        F  0.61030686  0.85421825  0.87892630    -0.15600
C476        C  0.45577803  0.57490696  0.74413984     0.14500
C477        C  0.44272474  0.60648771  0.74011401     0.01400
C478        C  0.45151490  0.64209552  0.75002501     0.16400
C479        C  0.47362366  0.64661929  0.76371638     0.25800
C480        C  0.48760032  0.61546582  0.76781739    -0.40500
C481        C  0.47819347  0.57936100  0.75783774     0.32900
C482        C  0.41833565  0.60206202  0.72587821     0.01500
F483        F  0.43759632  0.67203858  0.74657119    -0.12800
F484        F  0.49104864  0.54854670  0.76115906    -0.13400
C485        C  0.37416651  0.56566267  0.72381600     0.16400
C486        C  0.34746363  0.56631022  0.71194476     0.25800
C487        C  0.36449914  0.60383806  0.70203006    -0.40500
C488        C  0.41037682  0.63808862  0.70333419     0.32800
C489        C  0.43694131  0.63719595  0.71519986     0.14500
F490        F  0.35564701  0.53121986  0.73399417    -0.12800
F491        F  0.42910864  0.67358602  0.69356671    -0.13300
F492        F  0.30394956  0.53168452  0.71091082    -0.15600
F493        F  0.48026938  0.67187120  0.71674048    -0.14200
F494        F  0.44725029  0.54005063  0.73471427    -0.14200
F495        F  0.48042406  0.68119707  0.77301179    -0.15600
C496        C  0.86950724  0.09011893  0.50801861     0.14500
C497        C  0.87718585  0.10846922  0.49337231     0.01400
C498        C  0.89309780  0.09111174  0.48206505     0.16400
C499        C  0.90055019  0.05535614  0.48526728     0.25800
C500        C  0.89197913  0.03630591  0.49979107    -0.40500
C501        C  0.87680684  0.05406023  0.51121386     0.32900
C502        C  0.86803216  0.14524983  0.48965076     0.01500
F503        F  0.90132821  0.10885446  0.46790655    -0.12800
F504        F  0.86878946  0.03625154  0.52534808    -0.13400
C505        C  0.89453734  0.18855659  0.49597246     0.16400
C506        C  0.88774368  0.22413448  0.49161117     0.25800
C507        C  0.85436602  0.21682283  0.48081218    -0.40500
C508        C  0.82738958  0.17310139  0.47468921     0.32800
C509        C  0.83416612  0.13762820  0.47910475     0.14500
F510        F  0.92803535  0.19669109  0.50596470    -0.12800
F511        F  0.79392157  0.16443329  0.46461277    -0.13300
F512        F  0.91499512  0.26607261  0.49751073    -0.15600
F513        F  0.80761218  0.09567508  0.47310287    -0.14200
F514        F  0.85393541  0.10642171  0.51906412    -0.14200
F515        F  0.91504276  0.03840064  0.47408604    -0.15600
C516        C  0.89403653  0.72780017  0.52316467     0.14500
C517        C  0.92971421  0.77250194  0.52518105     0.01400
C518        C  0.96776285  0.78059392  0.53370379     0.16400
C519        C  0.96963389  0.74472205  0.54052405     0.25800
C520        C  0.93346291  0.69987101  0.53889267    -0.40500
C521        C  0.89592976  0.69168084  0.52991212     0.32900
C522        C  0.92603063  0.81108722  0.51938930     0.01500
F523        F  0.00311479  0.82348744  0.53550226    -0.12800
F524        F  0.86022208  0.64901121  0.52813665    -0.13400
C525        C  0.92798948  0.84360601  0.52958750     0.16400
C526        C  0.92411721  0.88000458  0.52437627     0.25800
C527        C  0.91726495  0.88395239  0.50895764    -0.40500
C528        C  0.91560281  0.85186564  0.49866990     0.32800
C529        C  0.92014441  0.81555991  0.50386703     0.14500
F530        F  0.93233854  0.83934440  0.54466785    -0.12800
F531        F  0.90938787  0.85566808  0.48371014    -0.13300
F532        F  0.92543453  0.91074851  0.53444697    -0.15600
F533        F  0.91915870  0.78501677  0.49380086    -0.14200
F534        F  0.85651333  0.71933601  0.51520359    -0.14200
F535        F  0.00723941  0.75404904  0.54857145    -0.15600
C536        C  0.84523348  0.48525534  0.52184824     0.14500
C537        C  0.86810391  0.46074264  0.52315510     0.01400
C538        C  0.90369919  0.47486577  0.53356945     0.16400
C539        C  0.91797644  0.51431691  0.54198377     0.25800
C540        C  0.89704509  0.54066034  0.54004169    -0.40500
C541        C  0.85963724  0.52501276  0.53020469     0.32900
C542        C  0.85885146  0.42378224  0.51250891     0.01500
F543        F  0.92681313  0.45215430  0.53483053    -0.12800
F544        F  0.83745168  0.54849767  0.52848040    -0.13400
C545        C  0.86544944  0.43311045  0.49698139     0.16400
C546        C  0.86184776  0.40005061  0.48689249     0.25800
C547        C  0.85163785  0.35691707  0.49216358    -0.40500
C548        C  0.84463171  0.34751151  0.50774588     0.32800
C549        C  0.84803436  0.38067000  0.51781675     0.14500
F550        F  0.87736852  0.47501673  0.49164277    -0.12800
F551        F  0.83384447  0.30609494  0.51325120    -0.13300
F552        F  0.87002274  0.41098073  0.47202215    -0.15600
F553        F  0.84093105  0.37079785  0.53277925    -0.14200
F554        F  0.80979212  0.47132434  0.51214962    -0.14200
F555        F  0.95438910  0.52818575  0.55123158    -0.15600
C556        C  0.01327410  0.61710390  0.60179797     0.14500
C557        C  0.04963589  0.66079466  0.60472269     0.01400
C558        C  0.05621332  0.69705118  0.59548448     0.16400
C559        C  0.02729532  0.68953437  0.58324812     0.25800
C560        C  0.99131514  0.64542428  0.58003399    -0.40500
C561        C  0.98434879  0.60942424  0.58961271     0.32900
C562        C  0.08304921  0.66694947  0.61642842     0.01500
F563        F  0.09135276  0.73955385  0.59811017    -0.12800
F564        F  0.94993241  0.56645648  0.58711495    -0.13400
C565        C  0.12719823  0.67879884  0.61211293     0.16400
C566        C  0.15654922  0.67624247  0.62251315     0.25800
C567        C  0.14219870  0.66171961  0.63743731    -0.40500
C568        C  0.09906296  0.65303660  0.64202624     0.32800
C569        C  0.06960912  0.65545217  0.63154403     0.14500
F570        F  0.14088285  0.68989994  0.59755193    -0.12800
F571        F  0.08423733  0.63928835  0.65634002    -0.13300
F572        F  0.19860394  0.68662658  0.61782169    -0.15600
F573        F  0.02722243  0.64464595  0.63595358    -0.14200
F574        F  0.00708418  0.58132514  0.61034285    -0.14200
F575        F  0.03600729  0.72514382  0.57419429    -0.15600
C576        C  0.67991601  0.71759722  0.49452274     0.14500
C577        C  0.72271208  0.73543988  0.48781685     0.01400
C578        C  0.72914308  0.71128528  0.47614254     0.16400
C579        C  0.69285123  0.67036156  0.47093318     0.25800
C580        C  0.64950190  0.65284083  0.47738445    -0.40500
C581        C  0.64363632  0.67673118  0.48938809     0.32900
C582        C  0.75949414  0.78103252  0.49212890     0.01500
F583        F  0.77065476  0.72753519  0.46975418    -0.12800
F584        F  0.60238603  0.66158635  0.49584814    -0.13400
C585        C  0.77566403  0.79076693  0.50707968     0.16400
C586        C  0.80944774  0.83468184  0.51105040     0.25800
C587        C  0.82781218  0.86896014  0.50003728    -0.40500
C588        C  0.81139171  0.85916716  0.48516329     0.32800
C589        C  0.77728111  0.81567560  0.48126228     0.14500
F590        F  0.75916811  0.75762468  0.51773054    -0.12800
F591        F  0.82907790  0.89177196  0.47433894    -0.13300
F592        F  0.82428736  0.84367203  0.52555555    -0.15600
F593        F  0.76114210  0.80743628  0.46688414    -0.14200
F594        F  0.67276614  0.74079140  0.50563604    -0.14200
F595        F  0.70038235  0.64775898  0.45972144    -0.15600
C596        C  0.13683008  0.18382725  0.52035969     0.14500
C597        C  0.09198033  0.17480712  0.52151938     0.01400
C598        C  0.08306601  0.20583715  0.52902044     0.16400
C599        C  0.11814359  0.24419243  0.53593301     0.25800
C600        C  0.16283603  0.25252858  0.53521813    -0.40500
C601        C  0.17212728  0.22267047  0.52707261     0.32900
C602        C  0.05391430  0.13111818  0.51630336     0.01500
F603        F  0.04010392  0.19844529  0.52986945    -0.12800
F604        F  0.21499683  0.22980729  0.52629274    -0.13400
C605        C  0.02116758  0.10252355  0.52681192     0.16400
C606        C  0.98476338  0.06127325  0.52220617     0.25800
C607        C  0.98054096  0.04773309  0.50705341    -0.40500
C608        C  0.01337243  0.07580574  0.49648659     0.32800
C609        C  0.05003872  0.11745561  0.50110519     0.14500
F610        F  0.02502952  0.11419446  0.54164406    -0.12800
F611        F  0.00984911  0.06293555  0.48180578    -0.13300
F612        F  0.95380165  0.03392013  0.53261235    -0.15600
F613        F  0.08136139  0.14464027  0.49077537    -0.14200
F614        F  0.14612832  0.15387435  0.51342519    -0.19300
F615        F  0.10843608  0.27333146  0.54324227    -0.15600
C616        C  0.36945953  0.39019160  0.51537800     0.14500
C617        C  0.39442214  0.43709051  0.51791168     0.01400
C618        C  0.38240103  0.45613893  0.52982085     0.16400
C619        C  0.34427833  0.42877091  0.53864812     0.25800
C620        C  0.31770883  0.38188657  0.53563254    -0.40500
C621        C  0.33151106  0.36276316  0.52416141     0.32900
C622        C  0.43144605  0.46614004  0.50754277     0.01500
F623        F  0.40629688  0.50155032  0.53241182    -0.12800
F624        F  0.30806779  0.31749914  0.52130061    -0.13400
C625        C  0.42185467  0.46853509  0.49224917     0.16400
C626        C  0.45684866  0.49448299  0.48215960     0.25800
C627        C  0.50195353  0.51868633  0.48726873    -0.40500
C628        C  0.51139031  0.51672100  0.50266705     0.32800
C629        C  0.47631676  0.49054093  0.51272427     0.14500
F630        F  0.37841404  0.44598799  0.48714453    -0.12800
F631        F  0.55470112  0.53883716  0.50789577    -0.13300
F632        F  0.44648876  0.49672468  0.46748380    -0.15600
F633        F  0.48622449  0.48795326  0.52742720    -0.14200
F634        F  0.38156356  0.37107343  0.50419556    -0.14200
F635        F  0.33215888  0.44867256  0.54955415    -0.15600
C636        C  0.18454413  0.45086185  0.61292086     0.14500
C637        C  0.19643139  0.41860998  0.61724482     0.01400
C638        C  0.20853916  0.41702218  0.63229216     0.16400
C639        C  0.21174618  0.44942078  0.64268227     0.25800
C640        C  0.20327888  0.48407528  0.63803495    -0.40500
C641        C  0.18763790  0.48312899  0.62322304     0.32900
C642        C  0.20198499  0.39132621  0.60546859     0.01500
F643        F  0.21930192  0.38541746  0.63670493    -0.12800
F644        F  0.17718167  0.51466476  0.61844201    -0.13400
C645        C  0.24565643  0.39978678  0.60193936     0.16400
C646        C  0.25304812  0.38178007  0.58881435     0.25800
C647        C  0.21677457  0.35498284  0.57898274    -0.40500
C648        C  0.17251384  0.34427262  0.58309111     0.32800
C649        C  0.16529896  0.36244237  0.59622718     0.14500
F650        F  0.28169100  0.42807999  0.61067134    -0.12800
F651        F  0.13650223  0.31865237  0.57397455    -0.13300
F652        F  0.29596924  0.39167773  0.58555781    -0.15600
F653        F  0.12279666  0.35374252  0.59955935    -0.14200
F654        F  0.17319305  0.45327776  0.59837271    -0.14200
F655        F  0.22593720  0.44848761  0.65695033    -0.15600
C656        C  0.12307066  0.94174343  0.48703261     0.14500
C657        C  0.11082280  0.97281564  0.48163939     0.01400
C658        C  0.13486348  0.00130565  0.46951833     0.16400
C659        C  0.16923556  0.99745610  0.46240683     0.25800
C660        C  0.18084304  0.96525547  0.46739947    -0.40500
C661        C  0.15786837  0.93808591  0.48005464     0.32900
C662        C  0.07016458  0.97251362  0.48752000     0.01500
F663        F  0.12439001  0.03248928  0.46436111    -0.12800
F664        F  0.16774935  0.90673724  0.48544220    -0.13400
C665        C  0.06561616  0.97943268  0.50296675     0.16400
C666        C  0.02615450  0.97799354  0.50822830     0.25800
C667        C  0.99136690  0.96997340  0.49804582    -0.40500
C668        C  0.99610796  0.96337573  0.48267719     0.32800
C669        C  0.03494225  0.96425994  0.47746594     0.14500
F670        F  0.09933589  0.98769163  0.51287045    -0.12800
F671        F  0.96243194  0.95520532  0.47274372    -0.13300
F672        F  0.02157454  0.98375437  0.52316755    -0.15600
F673        F  0.03762762  0.95576078  0.46261935    -0.14200
F674        F  0.09986580  0.91333696  0.49860357    -0.14200
F675        F  0.19080866  0.02537388  0.45059189    -0.15600
C676        C  0.64236536  0.88450538  0.50472104     0.14500
C677        C  0.67869366  0.91863242  0.51300034     0.01400
C678        C  0.66978475  0.94032285  0.52491407     0.16400
C679        C  0.62518632  0.92663131  0.52896000     0.25800
C680        C  0.58888580  0.89180510  0.52092500    -0.40500
C681        C  0.59769511  0.87148579  0.50857054     0.32900
C682        C  0.72554214  0.92879839  0.51017460     0.01500
F683        F  0.70440057  0.97434946  0.53276654    -0.12800
F684        F  0.56303172  0.83737512  0.50076724    -0.13400
C685        C  0.74583704  0.94336982  0.49588719     0.16400
C686        C  0.78986333  0.95159410  0.49337594     0.25800
C687        C  0.81388231  0.94544942  0.50514702    -0.40500
C688        C  0.79373460  0.93132685  0.51940907     0.32800
C689        C  0.74986676  0.92281384  0.52189010     0.14500
F690        F  0.72313024  0.94985179  0.48445125    -0.12800
F691        F  0.81677154  0.92576577  0.53095387    -0.13300
F692        F  0.80879177  0.96494015  0.47948321    -0.15600
F693        F  0.73068143  0.90770053  0.53567497    -0.14200
F694        F  0.65009112  0.86223528  0.49343196    -0.14200
F695        F  0.61739747  0.94753072  0.54068267    -0.15600
C696        C  0.41778631  0.89139502  0.48730226     0.14500
C697        C  0.37125249  0.86674213  0.49065075     0.01400
C698        C  0.35616418  0.83589183  0.50274198     0.16400
C699        C  0.38732795  0.83173947  0.51189015     0.25800
C700        C  0.43425241  0.85824481  0.50904573    -0.40500
C701        C  0.44897318  0.88700595  0.49632524     0.32900
C702        C  0.33955644  0.87715157  0.48255148     0.01500
F703        F  0.31123766  0.81062651  0.50593207    -0.12800
F704        F  0.49377043  0.91323513  0.49310224    -0.13400
C705        C  0.33717827  0.87579745  0.46669338     0.16400
C706        C  0.31265531  0.89249345  0.45905090     0.25800
C707        C  0.28967935  0.91044462  0.46716708    -0.40500
C708        C  0.29003659  0.90926085  0.48309255     0.32800
C709        C  0.31492516  0.89303945  0.49067536     0.14500
F710        F  0.35942920  0.85913669  0.45860292    -0.12800
F711        F  0.26867030  0.92638657  0.49143477    -0.13300
F712        F  0.31180732  0.89143999  0.44371486    -0.15600
F713        F  0.31723585  0.89556988  0.50599654    -0.14200
F714        F  0.43344806  0.92212091  0.47587122    -0.14200
F715        F  0.37148619  0.80226883  0.52367362    -0.15600
C716        C  0.41755382  0.81730547  0.58099477     0.14500
C717        C  0.43995630  0.80022032  0.58971313     0.01400
C718        C  0.47997109  0.80322832  0.58428823     0.16400
C719        C  0.49658709  0.82158439  0.56999612     0.25800
C720        C  0.47285406  0.83659540  0.56080046    -0.40500
C721        C  0.43378303  0.83536302  0.56666915     0.32900
C722        C  0.41848854  0.77452488  0.60359245     0.01500
F723        F  0.50201017  0.78684329  0.59264275    -0.12800
F724        F  0.41069895  0.85092047  0.55847814    -0.13400
C725        C  0.39364851  0.72701731  0.60296787     0.16400
C726        C  0.36897188  0.70201599  0.61549918     0.25800
C727        C  0.36907921  0.72416629  0.62894647    -0.40500
C728        C  0.39549758  0.77179877  0.62974675     0.32800
C729        C  0.41974860  0.79685172  0.61706813     0.14500
F730        F  0.39174178  0.70496458  0.58995824    -0.12800
F731        F  0.39552900  0.79419535  0.64244045    -0.13300
F732        F  0.34416859  0.65608693  0.61438230    -0.15600
F733        F  0.44329404  0.84286823  0.61776216    -0.14200
F734        F  0.37867334  0.81450751  0.58609070    -0.14200
F735        F  0.53452852  0.82236269  0.56491649    -0.15600
C736        C  0.77038316  0.31355149  0.42436846     0.14500
C737        C  0.76909973  0.28331264  0.41341077     0.01400
C738        C  0.79040162  0.25803575  0.41614535     0.16400
C739        C  0.81108580  0.26130872  0.43009960     0.25800
C740        C  0.81050156  0.28996049  0.44153078    -0.40500
C741        C  0.79093908  0.31704856  0.43829227     0.32900
C742        C  0.74054431  0.27445131  0.40001762     0.01500
F743        F  0.78934818  0.22872783  0.40554025    -0.12800
F744        F  0.78943437  0.34535581  0.44878207    -0.13400
C745        C  0.75932179  0.29550656  0.38618100     0.16400
C746        C  0.73090357  0.29225848  0.37424561     0.25800
C747        C  0.68350466  0.26833567  0.37620229    -0.40500
C748        C  0.66506062  0.24471637  0.38978965     0.32800
C749        C  0.69343298  0.24795971  0.40161160     0.14500
F750        F  0.80497352  0.32122636  0.38455406    -0.12800
F751        F  0.61947576  0.21955404  0.39181575    -0.13300
F752        F  0.74974432  0.31500840  0.36122215    -0.15600
F753        F  0.67495356  0.22690199  0.41491482    -0.14200
F754        F  0.74982814  0.33828049  0.42178591    -0.14200
F755        F  0.83072084  0.23567002  0.43246511    -0.15600
C756        C  0.58627558  0.47495581  0.38456082     0.14500
C757        C  0.56892928  0.45869066  0.39903489     0.01400
C758        C  0.55237549  0.41284642  0.40245233     0.16400
C759        C  0.55373757  0.38368269  0.39167999     0.25800
C760        C  0.57163790  0.39974378  0.37714341    -0.40500
C761        C  0.58743457  0.44571157  0.37364984     0.32900
C762        C  0.56996242  0.48943580  0.41100257     0.01500
F763        F  0.53582385  0.39649316  0.41643283    -0.12800
F764        F  0.60486477  0.46268762  0.35981537    -0.13400
C765        C  0.52941930  0.48237467  0.41750575     0.16400
C766        C  0.53036710  0.50597677  0.43054659     0.25800
C767        C  0.57201939  0.53685773  0.43740937    -0.40500
C768        C  0.61266451  0.54603165  0.43023869     0.32800
C769        C  0.61155367  0.52238189  0.41716509     0.14500
F770        F  0.48882975  0.45132805  0.41151066    -0.12800
F771        F  0.65354604  0.57543287  0.43641128    -0.13300
F772        F  0.49039326  0.49768625  0.43665061    -0.15600
F773        F  0.65113133  0.52932723  0.41112585    -0.14200
F774        F  0.60203503  0.51915480  0.38101853    -0.14200
F775        F  0.53713478  0.33954448  0.39554340    -0.15600
C776        C  0.39942315  0.13593976  0.39527964     0.14500
C777        C  0.36760291  0.09319243  0.38958049     0.01400
C778        C  0.36901722  0.08334641  0.37426562     0.16400
C779        C  0.40279878  0.11554371  0.36482916     0.25800
C780        C  0.43600953  0.15792962  0.37067694    -0.40500
C781        C  0.43319934  0.16802197  0.38596236     0.32900
C782        C  0.33520166  0.05844119  0.40007282     0.01500
F783        F  0.33795214  0.04238799  0.36851649    -0.12800
F784        F  0.46332527  0.20888244  0.39203240    -0.13400
C785        C  0.30429011  0.06615547  0.40808237     0.16400
C786        C  0.27995142  0.03815130  0.42015970     0.25800
C787        C  0.28626019  0.00179036  0.42451595    -0.40500
C788        C  0.31506243  0.99239515  0.41569292     0.32800
C789        C  0.33934665  0.02057665  0.40361039     0.14500
F790        F  0.29929616  0.10224881  0.40462936    -0.12800
F791        F  0.32101772  0.95682840  0.41899292    -0.13300
F792        F  0.25237054  0.04863219  0.42804998    -0.15600
F793        F  0.36917324  0.01259236  0.39597295    -0.14200
F794        F  0.39881104  0.14604443  0.41009670    -0.14200
F795        F  0.40364293  0.10461661  0.35012522    -0.15600
C796        C  0.38284989  0.63073368  0.15136906     0.14500
C797        C  0.41963209  0.64680989  0.16139163     0.01400
C798        C  0.41399022  0.65559595  0.17653224     0.16400
C799        C  0.37193229  0.64857779  0.18152969     0.25800
C800        C  0.33538031  0.63280796  0.17139899    -0.40500
C801        C  0.34118028  0.62400890  0.15631506     0.32900
C802        C  0.46344233  0.65369372  0.15583222     0.01500
F803        F  0.44938721  0.67174054  0.18632909    -0.12800
F804        F  0.30658863  0.61003272  0.14625792    -0.13400
C805        C  0.48639442  0.68495597  0.14422071     0.16400
C806        C  0.52481223  0.68765796  0.13757306     0.25800
C807        C  0.54085570  0.65869733  0.14233366    -0.40500
C808        C  0.51858387  0.62859327  0.15444755     0.32800
C809        C  0.48027296  0.62621022  0.16110613     0.14500
F810        F  0.47109194  0.71250404  0.13916700    -0.12800
F811        F  0.53261404  0.60008891  0.15955284    -0.13300
F812        F  0.54612784  0.71875176  0.12648860    -0.15600
F813        F  0.45826935  0.59545250  0.17223877    -0.14200
F814        F  0.38732647  0.62134923  0.13676517    -0.14200
F815        F  0.36695798  0.65758553  0.19611583    -0.15600
C816        C  0.70992525  0.77045964  0.04541037     0.14500
C817        C  0.70924633  0.78592294  0.06005839     0.01400
C818        C  0.73865443  0.83147204  0.06380177     0.16400
C819        C  0.77068448  0.86055985  0.05339845     0.25800
C820        C  0.77384564  0.84450524  0.03903332    -0.40500
C821        C  0.74183591  0.79970908  0.03486953     0.32900
C822        C  0.68374517  0.75371902  0.07221628     0.01500
F823        F  0.73847511  0.84696281  0.07793003    -0.12800
F824        F  0.74327569  0.78335973  0.02101504    -0.13400
C825        C  0.70013005  0.72650539  0.07805313     0.16400
C826        C  0.68153836  0.70129084  0.09117430     0.25800
C827        C  0.64595194  0.70287697  0.09881033    -0.40500
C828        C  0.62820574  0.72876870  0.09240090     0.32800
C829        C  0.64731968  0.75427013  0.07929466     0.14500
F830        F  0.73611565  0.72646818  0.07149073    -0.12800
F831        F  0.59348895  0.73096875  0.09901504    -0.13300
F832        F  0.69961858  0.67648195  0.09654193    -0.15600
F833        F  0.63127912  0.78070517  0.07376937    -0.14200
F834        F  0.68114065  0.72650739  0.04160651    -0.14200
F835        F  0.79963458  0.90415441  0.05759255    -0.15600
C836        C  0.02119515  0.61448277  0.20260483     0.14500
C837        C  0.02656039  0.58923502  0.19103866     0.01400
C838        C  0.98801479  0.55478926  0.18369789     0.16400
C839        C  0.94472831  0.54535432  0.18799560     0.25800
C840        C  0.93948463  0.56958144  0.19986721    -0.40500
C841        C  0.97784762  0.60435884  0.20709683     0.32900
C842        C  0.07204108  0.59677477  0.18731108     0.01500
F843        F  0.99225081  0.52913658  0.17278900    -0.12800
F844        F  0.97324743  0.62881986  0.21836271    -0.13400
C845        C  0.09832677  0.59217273  0.19864436     0.16400
C846        C  0.14069951  0.59781748  0.19519633     0.25800
C847        C  0.15736826  0.60788638  0.18037524    -0.40500
C848        C  0.13124091  0.61235124  0.16897798     0.32800
C849        C  0.08882500  0.60704182  0.17244478     0.14500
F850        F  0.08254817  0.58135575  0.21301359    -0.12800
F851        F  0.14674594  0.62168527  0.15455831    -0.13300
F852        F  0.16582180  0.59380922  0.20636099    -0.15600
F853        F  0.06434043  0.61238799  0.16136396    -0.14200
F854        F  0.05796538  0.64887074  0.20953768    -0.14200
F855        F  0.90782508  0.51142608  0.18097763    -0.15600
C856        C  0.77344848  0.57193068  0.16369228     0.14500
C857        C  0.74173741  0.58268183  0.16956239     0.01400
C858        C  0.73692365  0.58382030  0.18528904     0.16400
C859        C  0.76354736  0.57464976  0.19502146     0.25800
C860        C  0.79592169  0.56453618  0.18920321    -0.40500
C861        C  0.80043356  0.56307602  0.17340920     0.32900
C862        C  0.71492692  0.59469035  0.15940374     0.01500
F863        F  0.70745480  0.59542671  0.19125421    -0.12800
F864        F  0.83047255  0.55244889  0.16732076    -0.13400
C865        C  0.66737015  0.57134565  0.16033161     0.16400
C866        C  0.64231753  0.58586149  0.15191963     0.25800
C867        C  0.66442274  0.62368431  0.14230616    -0.40500
C868        C  0.71190627  0.64564298  0.14083339     0.32800
C869        C  0.73694276  0.63146339  0.14940491     0.14500
F870        F  0.64524299  0.53470915  0.16951801    -0.12800
F871        F  0.73443502  0.68244409  0.13174078    -0.13300
F872        F  0.59642840  0.56282841  0.15314652    -0.15600
F873        F  0.78290772  0.65514299  0.14851016    -0.14200
F874        F  0.77805441  0.56971017  0.14852560    -0.14200
F875        F  0.75866828  0.57737972  0.21014831    -0.15600
C876        C  0.79252128  0.45282536  0.25627872     0.14500
C877        C  0.77965138  0.47656104  0.26622496     0.01400
C878        C  0.78894638  0.52044063  0.26239746     0.16400
C879        C  0.80909381  0.53955469  0.24854818     0.25800
C880        C  0.82093007  0.51539454  0.23849115    -0.40500
C881        C  0.81334013  0.47229914  0.24251982     0.32900
C882        C  0.75249953  0.45377367  0.27979309     0.01500
F883        F  0.77750805  0.54426729  0.27194620    -0.12800
F884        F  0.82349152  0.44800281  0.23272666    -0.13400
C885        C  0.76925022  0.43696469  0.29104616     0.16400
C886        C  0.74146911  0.41163541  0.30309527     0.25800
C887        C  0.69661926  0.40305101  0.30408504    -0.40500
C888        C  0.68060553  0.42139901  0.29305667     0.32800
C889        C  0.70822613  0.44630750  0.28100664     0.14500
F890        F  0.81230486  0.44464036  0.29024053    -0.12800
F891        F  0.63714110  0.41273473  0.29334330    -0.13300
F892        F  0.75825983  0.39519821  0.31370155    -0.15600
F893        F  0.69081750  0.46103819  0.27003660    -0.14200
F894        F  0.78247928  0.40979295  0.25949538    -0.14200
F895        F  0.81659257  0.58143901  0.24484111    -0.15600
C896        C  0.39379394  0.77705980  0.17297105     0.14500
C897        C  0.39701522  0.79403636  0.18768704     0.01400
C898        C  0.36230239  0.76943136  0.19814786     0.16400
C899        C  0.32563882  0.72766010  0.19414389     0.25800
C900        C  0.32281722  0.71013665  0.17958207    -0.40500
C901        C  0.35650859  0.73536485  0.16887649     0.32900
C902        C  0.43799314  0.83542437  0.19268645     0.01500
F903        F  0.36503312  0.78483346  0.21248817    -0.12800
F904        F  0.35355567  0.71940768  0.15462437    -0.13400
C905        C  0.43476704  0.87168166  0.19885582     0.16400
C906        C  0.47276590  0.90842177  0.20533915     0.25800
C907        C  0.51449026  0.90952190  0.20552029    -0.40500
C908        C  0.51800438  0.87394241  0.19890156     0.32800
C909        C  0.47986536  0.83689259  0.19265543     0.14500
F910        F  0.39467085  0.87114861  0.19873226    -0.12800
F911        F  0.55789939  0.87408333  0.19910761    -0.13300
F912        F  0.46899189  0.94318273  0.21122819    -0.15600
F913        F  0.48327647  0.80141817  0.18724340    -0.14200
F914        F  0.42696121  0.80066639  0.16268650    -0.14200
F915        F  0.29350768  0.70334829  0.20467133    -0.15600
C916        C  0.62070419  0.06898773  0.26842332     0.14500
C917        C  0.58007053  0.06774761  0.27213835     0.01400
C918        C  0.54086216  0.04038528  0.26361740     0.16400
C919        C  0.54288503  0.01679663  0.25100439     0.25800
C920        C  0.58436562  0.02047398  0.24664242    -0.40500
C921        C  0.62294411  0.04578038  0.25576229     0.32900
C922        C  0.57992924  0.09908717  0.28365808     0.01500
F923        F  0.50122652  0.03885722  0.26690397    -0.12800
F924        F  0.66315326  0.04876148  0.25232583    -0.13400
C925        C  0.60916480  0.14602775  0.28192186     0.16400
C926        C  0.60783491  0.17646697  0.29213435     0.25800
C927        C  0.57656310  0.16062094  0.30408999    -0.40500
C928        C  0.54732976  0.11368469  0.30590920     0.32800
C929        C  0.54929950  0.08304047  0.29582425     0.14500
F930        F  0.63785429  0.16254022  0.26995071    -0.12800
F931        F  0.51753714  0.09756383  0.31758714    -0.13300
F932        F  0.63579126  0.22166483  0.28993692    -0.15600
F933        F  0.52152851  0.03778914  0.29794839    -0.14200
F934        F  0.65866890  0.09391124  0.27682690    -0.14200
F935        F  0.50481386  0.99278921  0.24256935    -0.15600
C936        C  0.07682300  0.37408994  0.15187389     0.14500
C937        C  0.06508974  0.40104678  0.16056900     0.01400
C938        C  0.01945660  0.38671204  0.16343533     0.16400
C939        C  0.98558932  0.34548490  0.15759606     0.25800
C940        C  0.99727524  0.31867788  0.14872502    -0.40500
C941        C  0.04304200  0.33312173  0.14591561     0.32900
C942        C  0.10046070  0.44612915  0.16534609     0.01500
F943        F  0.00785162  0.41336621  0.17144045    -0.12800
F944        F  0.05499390  0.30708301  0.13770930    -0.13400
C945        C  0.12109103  0.48024514  0.15443793     0.16400
C946        C  0.15589142  0.52292507  0.15856626     0.25800
C947        C  0.17045584  0.53190124  0.17363733    -0.40500
C948        C  0.14963192  0.49800240  0.18465400     0.32800
C949        C  0.11445778  0.45504093  0.18049985     0.14500
F950        F  0.10769622  0.47191155  0.13976086    -0.12800
F951        F  0.16378472  0.50636704  0.19924358    -0.13300
F952        F  0.17646884  0.55534161  0.14778822    -0.15600
F953        F  0.09480736  0.42191344  0.19108761    -0.14200
F954        F  0.12102819  0.38775612  0.14910778    -0.14200
F955        F  0.94143503  0.33245350  0.16014862    -0.15600
C956        C  0.71305400  0.05072507  0.17846538     0.14500
C957        C  0.75435468  0.07771498  0.18595125     0.01400
C958        C  0.75604284  0.07708363  0.20178314     0.16400
C959        C  0.71640822  0.05124291  0.21008468     0.25800
C960        C  0.67453555  0.02563421  0.20262904    -0.40500
C961        C  0.67346966  0.02475461  0.18670225     0.32900
C962        C  0.79439189  0.10967417  0.17718308     0.01500
F963        F  0.79596471  0.10229243  0.20918215    -0.12800
F964        F  0.63380223  0.00108596  0.17902570    -0.13400
C965        C  0.81316550  0.15651533  0.17938218     0.16400
C966        C  0.84727224  0.18724234  0.16984268     0.25800
C967        C  0.86286389  0.17149604  0.15786754    -0.40500
C968        C  0.84512050  0.12452183  0.15603503     0.32800
C969        C  0.81112604  0.09385106  0.16564981     0.14500
F970        F  0.79681677  0.17247309  0.19029872    -0.12800
F971        F  0.86087723  0.10824120  0.14503400    -0.13300
F972        F  0.86346668  0.23230102  0.17192297    -0.15600
F973        F  0.79405562  0.04864099  0.16360466    -0.14200
F974        F  0.71057908  0.05169573  0.16315825    -0.14200
F975        F  0.71898946  0.05168929  0.22539784    -0.15600
C976        C  0.95002652  0.10900995  0.07065335     0.14500
C977        C  0.93727249  0.14134822  0.06749584     0.01400
C978        C  0.92277968  0.14423807  0.05291355     0.16400
C979        C  0.92058733  0.11452769  0.04158668     0.25800
C980        C  0.93236979  0.08126499  0.04483985    -0.40500
C981        C  0.94758906  0.07920239  0.05946500     0.32900
C982        C  0.93612331  0.16926175  0.07994164     0.01500
F983        F  0.91014858  0.17531782  0.04975388    -0.12800
F984        F  0.95992872  0.04811675  0.06302386    -0.13400
C985        C  0.97647979  0.20025367  0.08725917     0.16400
C986        C  0.97498806  0.21947414  0.10101759     0.25800
C987        C  0.93296791  0.20736358  0.10769265    -0.40500
C988        C  0.89265504  0.17839281  0.09986588     0.32800
C989        C  0.89426993  0.15958516  0.08603927     0.14500
F990        F  0.01720671  0.20979111  0.08147667    -0.12800
F991        F  0.85164729  0.16718411  0.10582572    -0.13300
F992        F  0.01450159  0.24708272  0.10832068    -0.15600
F993        F  0.85492475  0.12942928  0.07912645    -0.14200
F994        F  0.96329256  0.10522913  0.08479907    -0.14200
F995        F  0.90516785  0.11706812  0.02767889    -0.15600
C996        C  0.25909991  0.47543073  0.17171513     0.14500
C997        C  0.26713899  0.46745927  0.18666969     0.01400
C998        C  0.27178470  0.49800359  0.19810779     0.16400
C999        C  0.26838068  0.53607458  0.19468355     0.25800
C1000       C  0.25978300  0.54388515  0.17981023    -0.40500
C1001       C  0.25509684  0.51339385  0.16830697     0.32900
C1002       C  0.27172859  0.42795809  0.19055367     0.01500
F1003       F  0.27990686  0.49096552  0.21259756    -0.12800
F1004       F  0.24614144  0.52008771  0.15389874    -0.13400
C1005       C  0.31035717  0.42641887  0.18600599     0.16400
C1006       C  0.31755025  0.39187799  0.19126271     0.25800
C1007       C  0.28645039  0.35895440  0.20123051    -0.40500
C1008       C  0.24721717  0.35969873  0.20545433     0.32800
C1009       C  0.23974917  0.39394383  0.20007220     0.14500
F1010       F  0.34194472  0.45943422  0.17701637    -0.12800
F1011       F  0.21615051  0.32712960  0.21469627    -0.13300
F1012       F  0.35566340  0.39145957  0.18710399    -0.15600
F1013       F  0.20165105  0.39434954  0.20425983    -0.14200
F1014       F  0.25431192  0.44603587  0.16054004    -0.14200
F1015       F  0.27247269  0.56496852  0.20594959    -0.15600
C1016       C  0.36354790  0.33046476  0.26620558     0.14500
C1017       C  0.36724397  0.29326398  0.27113887     0.01400
C1018       C  0.34790407  0.25346917  0.26245656     0.16400
C1019       C  0.32751000  0.25161810  0.24866551     0.25800
C1020       C  0.32695053  0.29004747  0.24299167    -0.40500
C1021       C  0.34374999  0.32904149  0.25219813     0.32900
C1022       C  0.39637420  0.29731311  0.28407923     0.01500
F1023       F  0.35172442  0.21726366  0.26676948    -0.12800
F1024       F  0.34356781  0.36674988  0.24735829    -0.13400
C1025       C  0.38015791  0.26395028  0.29543184     0.16400
C1026       C  0.41026364  0.26191714  0.30565811     0.25800
C1027       C  0.45673859  0.29400516  0.30492533    -0.40500
C1028       C  0.47253063  0.32909225  0.29421488     0.32800
C1029       C  0.44263591  0.33048982  0.28377172     0.14500
F1030       F  0.33542307  0.23224984  0.29619833    -0.12800
F1031       F  0.51743651  0.36007667  0.29313729    -0.13300
F1032       F  0.39415511  0.22829434  0.31614399    -0.15600
F1033       F  0.45952241  0.36219867  0.27264916    -0.14200
F1034       F  0.38094110  0.36887389  0.27466324    -0.14200
F1035       F  0.31009730  0.21246589  0.24062895    -0.15600
C1036       C  0.25762033  0.85271747  0.15886106     0.14500
C1037       C  0.22008069  0.80877325  0.15787232     0.01400
C1038       C  0.18087339  0.80138229  0.15027513     0.16400
C1039       C  0.17953740  0.83752094  0.14336454     0.25800
C1040       C  0.21751248  0.88156470  0.14399400    -0.40500
C1041       C  0.25634259  0.88899821  0.15201983     0.32900
C1042       C  0.22407083  0.76992729  0.16292445     0.01500
F1043       F  0.14434865  0.75890721  0.14925456    -0.12800
F1044       F  0.29381237  0.93093623  0.15263238    -0.13400
C1045       C  0.21629347  0.75548440  0.17804283     0.16400
C1046       C  0.22108020  0.71871333  0.18255474     0.25800
C1047       C  0.23415828  0.69674121  0.17196557    -0.40500
C1048       C  0.24153624  0.71118658  0.15685878     0.32800
C1049       C  0.23638895  0.74744242  0.15236253     0.14500
F1050       F  0.20409376  0.77693784  0.18833256    -0.12800
F1051       F  0.25326200  0.68964455  0.14643208    -0.13300
F1052       F  0.21325759  0.70475461  0.19715957    -0.15600
F1053       F  0.24365850  0.76092010  0.13769025    -0.14200
F1054       F  0.29613046  0.86004250  0.16590343    -0.14200
F1055       F  0.14103143  0.82947381  0.13615771    -0.15600
C1056       C  0.27944798  0.14562767  0.18814526     0.14500
C1057       C  0.28886891  0.15461653  0.17270995     0.01400
C1058       C  0.30423600  0.19850849  0.16715339     0.16400
C1059       C  0.30917921  0.23295157  0.17688998     0.25800
C1060       C  0.29865839  0.22380564  0.19232636    -0.40500
C1061       C  0.28426228  0.17989454  0.19789414     0.32900
C1062       C  0.27878417  0.11712672  0.16228433     0.01500
F1063       F  0.31402132  0.20778118  0.15226001    -0.12800
F1064       F  0.27260772  0.16936486  0.21262119    -0.13400
C1065       C  0.24336354  0.10334929  0.15182606     0.16400
C1066       C  0.23017250  0.06491529  0.14295043     0.25800
C1067       C  0.25219260  0.03949118  0.14446365    -0.40500
C1068       C  0.28875801  0.05434034  0.15462770     0.32800
C1069       C  0.30187946  0.09288966  0.16349731     0.14500
F1070       F  0.21987792  0.12574579  0.15082426    -0.12800
F1071       F  0.31156030  0.03138035  0.15607702    -0.13300
F1072       F  0.19402838  0.05115046  0.13358168    -0.15600
F1073       F  0.33660828  0.10620083  0.17345991    -0.14200
F1074       F  0.26347703  0.10305094  0.19364265    -0.14200
F1075       F  0.32446342  0.27521454  0.17122860    -0.15600
C1076       C  0.08923218  0.93073928  0.05019992     0.14500
C1077       C  0.07854080  0.92772083  0.06561067     0.01400
C1078       C  0.03782460  0.92487317  0.07009935     0.16400
C1079       C  0.00843783  0.92599395  0.05938185     0.25800
C1080       C  0.01923185  0.93006797  0.04382769    -0.40500
C1081       C  0.05978956  0.93171838  0.03935952     0.32900
C1082       C  0.11081723  0.93050976  0.07723621     0.01500
F1083       F  0.02738240  0.92290364  0.08499462    -0.12800
F1084       F  0.07178863  0.93560966  0.02457682    -0.13400
C1085       C  0.15132937  0.97154893  0.07957650     0.16400
C1086       C  0.17888293  0.97662032  0.09196687     0.25800
C1087       C  0.16640902  0.94054201  0.10218349    -0.40500
C1088       C  0.12679051  0.89871180  0.09937507     0.32800
C1089       C  0.09908680  0.89390325  0.08704171     0.14500
F1090       F  0.16293379  0.00750509  0.07030847    -0.12800
F1091       F  0.11329702  0.86330392  0.10904172    -0.13300
F1092       F  0.21734000  0.01715652  0.09411575    -0.15600
F1093       F  0.05990779  0.85399361  0.08494589    -0.14200
F1094       F  0.12851713  0.93333661  0.04569110    -0.14200
F1095       F  0.96994907  0.92422131  0.06439841    -0.15600
loop_ 
_geom_bond_atom_site_label_1 
_geom_bond_atom_site_label_2 
_geom_bond_distance 
_geom_bond_site_symmetry_2 
_ccdc_geom_bond_type 
C1            N2   1.359       .  A
C1            N6   1.356       .  A
C1         C1040   1.474       .  S
N2            C3   1.358       .  A
C3            N4   1.356       .  A
C3         C1087   1.478       .  S
N4            C5   1.356       .  A
C5            N6   1.356       .  A
C5         C1067   1.475   1_565  S
C7            N8   1.355       .  A
C7           N12   1.360       .  A
C7         C1007   1.462       .  S
N8            C9   1.355       .  A
C9           N10   1.352       .  A
C9         C1060   1.474       .  S
N10          C11   1.356       .  A
C11          N12   1.360       .  A
C11        C1020   1.484       .  S
C13          N14   1.353       .  A
C13          N18   1.356       .  A
C13         C940   1.460       .  S
N14          C15   1.353       .  A
C15          N16   1.356       .  A
C15         C967   1.471       .  S
N16          C17   1.357       .  A
C17          N18   1.356       .  A
C17         C987   1.471       .  S
C19          N20   1.353       .  A
C19          N24   1.356       .  A
C19         C907   1.464       .  S
N20          C21   1.353   1_565  A
C21          N22   1.357       .  A
C21         C960   1.475       .  S
N22          C23   1.358       .  A
C23          N24   1.357   1_545  A
C23         C920   1.480       .  S
C25          N26   1.357       .  A
C25          N30   1.356       .  A
C25         C840   1.463       .  S
N26          C27   1.356       .  A
C27          N28   1.356       .  A
C27         C880   1.465       .  S
N28          C29   1.357       .  A
C29          N30   1.358       .  A
C29         C860   1.480       .  S
C31          N32   1.360       .  A
C31          N36   1.358       .  A
C31         C807   1.488       .  S
N32          C33   1.359       .  A
C33          N34   1.357       .  A
C33         C827   1.490       .  S
N34          C35   1.355       .  A
C35          N36   1.356       .  A
C35         C867   1.476       .  S
C37        C1047   1.477       .  S
C37          C38   1.401       .  A
C37          C42   1.406       .  A
C38         C847   1.478       .  S
C38          C39   1.405       .  A
C39         C947   1.468       .  S
C39          C40   1.406       .  A
C40        C1000   1.479       .  S
C40          C41   1.405       .  A
C41         C800   1.480       .  S
C41          C42   1.408       .  A
C42         C900   1.472       .  S
O43          C59   1.271       .  A
O43         Zn49   1.994       .  S
C44         C747   1.472       .  S
C44          O60   1.272       .  A
C44          O57   1.274       .  A
O45          C58   1.274       .  A
O45         Cd52   2.077       .  S
O46          C64   1.274       .  A
O46         Cd55   2.068       .  S
O47          C61   1.275       .  A
O47         Cd51   2.073       .  S
O48          C59   1.272       .  A
O48         Cd51   2.066       .  S
Zn49         O60   1.985       .  S
Zn49         O62   2.001       .  S
Zn49         O54   1.913       .  S
O50          C61   1.274       .  A
O50         Cd55   2.059       .  S
Cd51         O53   2.060       .  S
Cd51         O54   2.002       .  S
Cd52         O56   2.048       .  S
Cd52         O65   2.059       .  S
Cd52         O54   1.995       .  S
O53          C63   1.275       .  A
O54         Cd55   1.998       .  S
Cd55         O57   2.066       .  S
O56          C63   1.272       .  A
C58         C760   1.486       .  S
C58          O62   1.272       .  A
C59         C780   1.483       .  S
C61         C927   1.471       .  S
C63        C1027   1.466       .  S
C64         C887   1.477       .  S
C64          O65   1.274       .  A
C66          N67   1.356       .  A
C66          N71   1.358       .  A
C66         C680   1.468       .  S
N67          C68   1.358       .  A
C68          N69   1.358       .  A
C68         C700   1.483       .  S
N69          C70   1.358       .  A
C70          N71   1.358       .  A
C70         C720   1.485       .  S
C72          N73   1.358       .  A
C72          N77   1.356       .  A
C72         C660   1.487       .  S
N73          C74   1.358       .  A
C74          N75   1.359       .  A
C74         C787   1.488   1_565  S
N75          C76   1.358       .  A
C76          N77   1.356       .  A
C76         C707   1.482       .  S
C78          N79   1.356       .  A
C78          N83   1.354       .  A
C78         C600   1.469       .  S
N79          C80   1.357       .  A
C80          N81   1.359       .  A
C80         C647   1.479       .  S
N81          C82   1.357       .  A
C82          N83   1.356       .  A
C82         C620   1.478       .  S
C84          N85   1.362       .  A
C84          N89   1.354       .  A
C84         C580   1.481       .  S
N85          C86   1.362       .  A
C86          N87   1.359       .  A
C86         C767   1.485       .  S
N87          C88   1.355       .  A
C88          N89   1.352       .  A
C88         C627   1.472       .  S
C90          N91   1.358       .  A
C90          N95   1.359       .  A
C90         C520   1.479       .  S
N91          C92   1.358       .  A
C92          N93   1.355       .  A
C92         C540   1.478       .  S
N93          C94   1.355       .  A
C94          N95   1.356       .  A
C94         C560   1.482       .  S
C96          N97   1.358       .  A
C96         N101   1.358       .  A
C96         C507   1.476       .  S
N97          C98   1.357       .  A
C98          N99   1.354       .  A
C98         C547   1.477       .  S
N99         C100   1.354       .  A
C100        N101   1.357       .  A
C100        C740   1.483       .  S
C102        C687   1.478       .  S
C102        C103   1.410       .  A
C102        C107   1.409       .  A
C103        C500   1.478   1_565  S
C103        C104   1.408   1_565  A
C104        C607   1.474       .  S
C104        C105   1.402   1_545  A
C105        C667   1.473       .  S
C105        C106   1.401       .  A
C106        C527   1.474       .  S
C106        C107   1.403       .  A
C107        C587   1.480       .  S
C108        N109   1.359       .  A
C108        N113   1.356       .  A
C108        C440   1.474       .  S
N109        C110   1.357       .  A
C110        N111   1.357       .  A
C110        C480   1.487       .  S
N111        C112   1.355       .  A
C112        N113   1.355       .  A
C112        C467   1.468       .  S
C114        N115   1.359       .  A
C114        N119   1.357   1_545  A
C114        C400   1.473       .  S
N115        C116   1.358   1_545  A
C116        N117   1.356       .  A
C116        C420   1.487       .  S
N117        C118   1.354       .  A
C118        N119   1.356       .  A
C118        C460   1.473       .  S
C120        N121   1.360       .  A
C120        N125   1.354       .  A
C120        C340   1.469       .  S
N121        C122   1.359       .  A
C122        N123   1.357       .  A
C122        C380   1.477       .  S
N123        C124   1.353       .  A
C124        N125   1.353       .  A
C124        C360   1.471       .  S
C126        N127   1.358       .  A
C126        N131   1.355       .  A
C126        C300   1.471       .  S
N127        C128   1.356       .  A
C128        N129   1.357       .  A
C128        C320   1.470       .  S
N129        C130   1.356       .  A
C130        N131   1.355       .  A
C130        C367   1.477       .  S
C132        N133   1.359       .  A
C132        N137   1.358       .  A
C132        C240   1.480       .  S
N133        C134   1.357       .  A
C134        N135   1.355       .  A
C134        C280   1.473       .  S
N135        C136   1.354       .  A
C136        N137   1.356       .  A
C136        C267   1.467       .  S
C138        N139   1.357       .  A
C138        N143   1.357       .  A
C138        C207   1.473       .  S
N139        C140   1.360   1_655  A
C140        N141   1.352       .  A
C140        C260   1.478       .  S
N141        C142   1.353   1_455  A
C142        N143   1.359       .  A
C142        C220   1.475   1_655  S
C144        C307   1.471       .  S
C144        C145   1.404       .  A
C144        C149   1.403       .  A
C145        C447   1.475       .  S
C145        C146   1.404       .  A
C146        C247   1.473       .  S
C146        C147   1.405       .  A
C147        C347   1.468       .  S
C147        C148   1.404       .  A
C148        C407   1.475       .  S
C148        C149   1.401       .  A
C149        C200   1.473       .  S
O150        C166   1.271       .  A
O150       Zn156   1.986       .  S
C151       C1080   1.487   1_655  S
C151        O167   1.271       .  A
C151        O164   1.275       .  A
O152        C165   1.272       .  A
O152       Cd159   2.066       .  S
O153        C171   1.274       .  A
O153       Cd162   2.063   1_446  S
O154        C168   1.274       .  A
O154       Cd158   2.066       .  S
O155        C166   1.273       .  A
O155       Cd158   2.071   1_554  S
Zn156       O167   1.991       .  S
Zn156       O169   1.983   1_565  S
Zn156       O161   1.908       .  S
O157        C168   1.275       .  A
O157       Cd162   2.061   1_556  S
Cd158       O160   2.061       .  S
Cd158       O161   2.001   1_556  S
Cd159       O163   2.056   1_554  S
Cd159       O172   2.053   1_554  S
Cd159       O161   1.998   1_545  S
O160        C170   1.274       .  A
O161       Cd162   1.997       .  S
Cd162       O164   2.078       .  S
O163        C170   1.273   1_545  A
C165        C980   1.475       .  S
C165        O169   1.270       .  A
C166        C820   1.476       .  S
C168        C327   1.469       .  S
C170        C427   1.472       .  S
C171        C287   1.481       .  S
C171        O172   1.273   1_455  A
O173        C189   1.271       .  A
O173       Zn179   1.990       .  S
C174        C640   1.477       .  S
C174        O190   1.271       .  A
C174        O187   1.272       .  A
O175        C188   1.274       .  A
O175       Cd182   2.076       .  S
O176        C194   1.273       .  A
O176       Cd185   2.052       .  S
O177        C191   1.276       .  A
O177       Cd181   2.072       .  S
O178        C189   1.275       .  A
O178       Cd181   2.083       .  S
Zn179       O190   1.987       .  S
Zn179       O192   1.986       .  S
Zn179       O184   1.912       .  S
O180        C191   1.273       .  A
O180       Cd185   2.056       .  S
Cd181       O183   2.063       .  S
Cd181       O184   2.000       .  S
Cd182       O186   2.062       .  S
Cd182       O195   2.081       .  S
Cd182       O184   2.002       .  S
O183        C193   1.274       .  A
O184       Cd185   1.992       .  S
Cd185       O187   2.058       .  S
O186        C193   1.275       .  A
C188        C567   1.476       .  S
C188        O192   1.271       .  A
C189        C727   1.476       .  S
C191        C487   1.485       .  S
C193        C387   1.472       .  S
C194        C227   1.488       .  S
C194        O195   1.276       .  A
C196        C197   1.406       .  A
C196        C201   1.397       .  A
C196        F214   1.357       .  S
C197        C202   1.472       .  S
C197        C198   1.404       .  A
C198        C199   1.392       .  A
C198        F203   1.358       .  S
C199        C200   1.402       .  A
C199        F215   1.358       .  S
C200        C201   1.401       .  A
C201        F204   1.357       .  S
C202        C205   1.403       .  A
C202        C209   1.404       .  A
C205        C206   1.397       .  A
C205        F210   1.358       .  S
C206        C207   1.407       .  A
C206        F212   1.358       .  S
C207        C208   1.405       .  A
C208        C209   1.394       .  A
C208        F211   1.358       .  S
C209        F213   1.358       .  S
C216        C217   1.402       .  A
C216        C221   1.400   1_455  A
C216        F234   1.357   1_455  S
C217        C222   1.470       .  S
C217        C218   1.401       .  A
C218        C219   1.391       .  A
C218        F223   1.358       .  S
C219        C220   1.409       .  A
C219        F235   1.358       .  S
C220        C221   1.410   1_455  A
C221        F224   1.358       .  S
C222        C225   1.401       .  A
C222        C229   1.400       .  A
C225        C226   1.399       .  A
C225        F230   1.358       .  S
C226        C227   1.413       .  A
C226        F232   1.357       .  S
C227        C228   1.414       .  A
C228        C229   1.395       .  A
C228        F231   1.358       .  S
C229        F233   1.359       .  S
C236        C237   1.401       .  A
C236        C241   1.396       .  A
C236        F254   1.358       .  S
C237        C242   1.471       .  S
C237        C238   1.402       .  A
C238        C239   1.395       .  A
C238        F243   1.358       .  S
C239        C240   1.410       .  A
C239        F255   1.358       .  S
C240        C241   1.411       .  A
C241        F244   1.358       .  S
C242        C245   1.403       .  A
C242        C249   1.406       .  A
C245        C246   1.391       .  A
C245        F250   1.358       .  S
C246        C247   1.402       .  A
C246        F252   1.358       .  S
C247        C248   1.403       .  A
C248        C249   1.400       .  A
C248        F251   1.357       .  S
C249        F253   1.358       .  S
C256        C257   1.400       .  A
C256        C261   1.393       .  A
C256        F274   1.358       .  S
C257        C262   1.469       .  S
C257        C258   1.403       .  A
C258        C259   1.397       .  A
C258        F263   1.358       .  S
C259        C260   1.409       .  A
C259        F275   1.358       .  S
C260        C261   1.412       .  A
C261        F264   1.358       .  S
C262        C265   1.404       .  A
C262        C269   1.402       .  A
C265        C266   1.397       .  A
C265        F270   1.358       .  S
C266        C267   1.405       .  A
C266        F272   1.358       .  S
C267        C268   1.405       .  A
C268        C269   1.394       .  A
C268        F271   1.358       .  S
C269        F273   1.358       .  S
C276        C277   1.401       .  A
C276        C281   1.399       .  A
C276        F294   1.357       .  S
C277        C282   1.468       .  S
C277        C278   1.402       .  A
C278        C279   1.393       .  A
C278        F283   1.358       .  S
C279        C280   1.407       .  A
C279        F295   1.358       .  S
C280        C281   1.408       .  A
C281        F284   1.358       .  S
C282        C285   1.400       .  A
C282        C289   1.400       .  A
C285        C286   1.395       .  A
C285        F290   1.358       .  S
C286        C287   1.411       .  A
C286        F292   1.358       .  S
C287        C288   1.412       .  A
C288        C289   1.397       .  A
C288        F291   1.358       .  S
C289        F293   1.358       .  S
C296        C297   1.401       .  A
C296        C301   1.394       .  A
C296        F314   1.358       .  S
C297        C302   1.466       .  S
C297        C298   1.403       .  A
C298        C299   1.394       .  A
C298        F303   1.358       .  S
C299        C300   1.406       .  A
C299        F315   1.358       .  S
C300        C301   1.409       .  A
C301        F304   1.358       .  S
C302        C305   1.402       .  A
C302        C309   1.405       .  A
C305        C306   1.388       .  A
C305        F310   1.358       .  S
C306        C307   1.401       .  A
C306        F312   1.358       .  S
C307        C308   1.403       .  A
C308        C309   1.398       .  A
C308        F311   1.357       .  S
C309        F313   1.358       .  S
C316        C317   1.405       .  A
C316        C321   1.400       .  A
C316        F334   1.358       .  S
C317        C322   1.473       .  S
C317        C318   1.403       .  A
C318        C319   1.393       .  A
C318        F323   1.358       .  S
C319        C320   1.405       .  A
C319        F335   1.358       .  S
C320        C321   1.406       .  A
C321        F324   1.358       .  S
C322        C325   1.405       .  A
C322        C329   1.403       .  A
C325        C326   1.401       .  A
C325        F330   1.358       .  S
C326        C327   1.406       .  A
C326        F332   1.358       .  S
C327        C328   1.405       .  A
C328        C329   1.392       .  A
C328        F331   1.359       .  S
C329        F333   1.358       .  S
C336        C337   1.400       .  A
C336        C341   1.394       .  A
C336        F354   1.358       .  S
C337        C342   1.465       .  S
C337        C338   1.403       .  A
C338        C339   1.396   1_545  A
C338        F343   1.358       .  S
C339        C340   1.405       .  A
C339        F355   1.358       .  S
C340        C341   1.408   1_565  A
C341        F344   1.358       .  S
C342        C345   1.405       .  A
C342        C349   1.401       .  A
C345        C346   1.399       .  A
C345        F350   1.357       .  S
C346        C347   1.402       .  A
C346        F352   1.357       .  S
C347        C348   1.401       .  A
C348        C349   1.388       .  A
C348        F351   1.358       .  S
C349        F353   1.358       .  S
C356        C357   1.404       .  A
C356        C361   1.394       .  A
C356        F374   1.358       .  S
C357        C362   1.474       .  S
C357        C358   1.405       .  A
C358        C359   1.395       .  A
C358        F363   1.358       .  S
C359        C360   1.407       .  A
C359        F375   1.358       .  S
C360        C361   1.407       .  A
C361        F364   1.358       .  S
C362        C365   1.404       .  A
C362        C369   1.403       .  A
C365        C366   1.394       .  A
C365        F370   1.358       .  S
C366        C367   1.408   1_455  A
C366        F372   1.358       .  S
C367        C368   1.410       .  A
C368        C369   1.395   1_655  A
C368        F371   1.357       .  S
C369        F373   1.358       .  S
C376        C377   1.401       .  A
C376        C381   1.401       .  A
C376        F394   1.357       .  S
C377        C382   1.467       .  S
C377        C378   1.400       .  A
C378        C379   1.391       .  A
C378        F383   1.358       .  S
C379        C380   1.409       .  A
C379        F395   1.358       .  S
C380        C381   1.411       .  A
C381        F384   1.358       .  S
C382        C385   1.402       .  A
C382        C389   1.402       .  A
C385        C386   1.396       .  A
C385        F390   1.358       .  S
C386        C387   1.407       .  A
C386        F392   1.358       .  S
C387        C388   1.407       .  A
C388        C389   1.397       .  A
C388        F391   1.358       .  S
C389        F393   1.358       .  S
C396        C397   1.404       .  A
C396        C401   1.396       .  A
C396        F414   1.358       .  S
C397        C402   1.473       .  S
C397        C398   1.403       .  A
C398        C399   1.397       .  A
C398        F403   1.358       .  S
C399        C400   1.408       .  A
C399        F415   1.358   1_545  S
C400        C401   1.406       .  A
C401        F404   1.358       .  S
C402        C405   1.406       .  A
C402        C409   1.404       .  A
C405        C406   1.399       .  A
C405        F410   1.357       .  S
C406        C407   1.402       .  A
C406        F412   1.357       .  S
C407        C408   1.402       .  A
C408        C409   1.392       .  A
C408        F411   1.358       .  S
C409        F413   1.358       .  S
C416        C417   1.402       .  A
C416        C421   1.392       .  A
C416        F434   1.359       .  S
C417        C422   1.476       .  S
C417        C418   1.403   1_565  A
C418        C419   1.399       .  A
C418        F423   1.358       .  S
C419        C420   1.413   1_545  A
C419        F435   1.357       .  S
C420        C421   1.413       .  A
C421        F424   1.357       .  S
C422        C425   1.405   1_565  A
C422        C429   1.405       .  A
C425        C426   1.396       .  A
C425        F430   1.358       .  S
C426        C427   1.407   1_545  A
C426        F432   1.358       .  S
C427        C428   1.406       .  A
C428        C429   1.395       .  A
C428        F431   1.358       .  S
C429        F433   1.358       .  S
C436        C437   1.403       .  A
C436        C441   1.393       .  A
C436        F454   1.358       .  S
C437        C442   1.474       .  S
C437        C438   1.405       .  A
C438        C439   1.399       .  A
C438        F443   1.358       .  S
C439        C440   1.408       .  A
C439        F455   1.358       .  S
C440        C441   1.406       .  A
C441        F444   1.358       .  S
C442        C445   1.404       .  A
C442        C449   1.407       .  A
C445        C446   1.391       .  A
C445        F450   1.358       .  S
C446        C447   1.401       .  A
C446        F452   1.358       .  S
C447        C448   1.403       .  A
C448        C449   1.400       .  A
C448        F451   1.357       .  S
C449        F453   1.358       .  S
C456        C457   1.401       .  A
C456        C461   1.397       .  A
C456        F474   1.358       .  S
C457        C462   1.465       .  S
C457        C458   1.400       .  A
C458        C459   1.394       .  A
C458        F463   1.358       .  S
C459        C460   1.409       .  A
C459        F475   1.358       .  S
C460        C461   1.408       .  A
C461        F464   1.358       .  S
C462        C465   1.402       .  A
C462        C469   1.401       .  A
C465        C466   1.396       .  A
C465        F470   1.358       .  S
C466        C467   1.406       .  A
C466        F472   1.358       .  S
C467        C468   1.407       .  A
C468        C469   1.395       .  A
C468        F471   1.358       .  S
C469        F473   1.358       .  S
C476        C477   1.401       .  A
C476        C481   1.399       .  A
C476        F494   1.358       .  S
C477        C482   1.474       .  S
C477        C478   1.402       .  A
C478        C479   1.393       .  A
C478        F483   1.359       .  S
C479        C480   1.412       .  A
C479        F495   1.358       .  S
C480        C481   1.414       .  A
C481        F484   1.358       .  S
C482        C485   1.401       .  A
C482        C489   1.403       .  A
C485        C486   1.397       .  A
C485        F490   1.358       .  S
C486        C487   1.413       .  A
C486        F492   1.358       .  S
C487        C488   1.410       .  A
C488        C489   1.396       .  A
C488        F491   1.358       .  S
C489        F493   1.358       .  S
C496        C497   1.406       .  A
C496        C501   1.399       .  A
C496        F514   1.357       .  S
C497        C502   1.473       .  S
C497        C498   1.403       .  A
C498        C499   1.393       .  A
C498        F503   1.358       .  S
C499        C500   1.403       .  A
C499        F515   1.358       .  S
C500        C501   1.404       .  A
C501        F504   1.357       .  S
C502        C505   1.403       .  A
C502        C509   1.403       .  A
C505        C506   1.398       .  A
C505        F510   1.358       .  S
C506        C507   1.409       .  A
C506        F512   1.358       .  S
C507        C508   1.408       .  A
C508        C509   1.395       .  A
C508        F511   1.358       .  S
C509        F513   1.358       .  S
C516        C517   1.404       .  A
C516        C521   1.398       .  A
C516        F534   1.358       .  S
C517        C522   1.474       .  S
C517        C518   1.403       .  A
C518        C519   1.393       .  A
C518        F523   1.358   1_655  S
C519        C520   1.409       .  A
C519        F535   1.357   1_655  S
C520        C521   1.410       .  A
C521        F524   1.358       .  S
C522        C525   1.404       .  A
C522        C529   1.407       .  A
C525        C526   1.390       .  A
C525        F530   1.358       .  S
C526        C527   1.402       .  A
C526        F532   1.359       .  S
C527        C528   1.402       .  A
C528        C529   1.399       .  A
C528        F531   1.357       .  S
C529        F533   1.357       .  S
C536        C537   1.405       .  A
C536        C541   1.398       .  A
C536        F554   1.358       .  S
C537        C542   1.474       .  S
C537        C538   1.402       .  A
C538        C539   1.393       .  A
C538        F543   1.358       .  S
C539        C540   1.410       .  A
C539        F555   1.358       .  S
C540        C541   1.409       .  A
C541        F544   1.358       .  S
C542        C545   1.403       .  A
C542        C549   1.404       .  A
C545        C546   1.393       .  A
C545        F550   1.358       .  S
C546        C547   1.409       .  A
C546        F552   1.358       .  S
C547        C548   1.409       .  A
C548        C549   1.397       .  A
C548        F551   1.358       .  S
C549        F553   1.358       .  S
C556        C557   1.402       .  A
C556        C561   1.394   1_455  A
C556        F574   1.358       .  S
C557        C562   1.474       .  S
C557        C558   1.403       .  A
C558        C559   1.398       .  A
C558        F563   1.358       .  S
C559        C560   1.412   1_455  A
C559        F575   1.357       .  S
C560        C561   1.410       .  A
C561        F564   1.358       .  S
C562        C565   1.402       .  A
C562        C569   1.405       .  A
C565        C566   1.394       .  A
C565        F570   1.358       .  S
C566        C567   1.409       .  A
C566        F572   1.359       .  S
C567        C568   1.407       .  A
C568        C569   1.399       .  A
C568        F571   1.358       .  S
C569        F573   1.358       .  S
C576        C577   1.401       .  A
C576        C581   1.395       .  A
C576        F594   1.358       .  S
C577        C582   1.475       .  S
C577        C578   1.405       .  A
C578        C579   1.398       .  A
C578        F583   1.358       .  S
C579        C580   1.408       .  A
C579        F595   1.357       .  S
C580        C581   1.412       .  A
C581        F584   1.358       .  S
C582        C585   1.407       .  A
C582        C589   1.403       .  A
C585        C586   1.399       .  A
C585        F590   1.358       .  S
C586        C587   1.405       .  A
C586        F592   1.357       .  S
C587        C588   1.403       .  A
C588        C589   1.392       .  A
C588        F591   1.358       .  S
C589        F593   1.358       .  S
C596        C597   1.404       .  A
C596        C601   1.397       .  A
C596        F614   1.358       .  S
C597        C602   1.474       .  S
C597        C598   1.405       .  A
C598        C599   1.393       .  A
C598        F603   1.358       .  S
C599        C600   1.405       .  A
C599        F615   1.358       .  S
C600        C601   1.407       .  A
C601        F604   1.358       .  S
C602        C605   1.404       .  A
C602        C609   1.407       .  A
C605        C606   1.389   1_455  A
C605        F610   1.358       .  S
C606        C607   1.402       .  A
C606        F612   1.358       .  S
C607        C608   1.403   1_655  A
C608        C609   1.401       .  A
C608        F611   1.357       .  S
C609        F613   1.358       .  S
C616        C617   1.401       .  A
C616        C621   1.393       .  A
C616        F634   1.358       .  S
C617        C622   1.471       .  S
C617        C618   1.403       .  A
C618        C619   1.398       .  A
C618        F623   1.358       .  S
C619        C620   1.411       .  A
C619        F635   1.358       .  S
C620        C621   1.409       .  A
C621        F624   1.358       .  S
C622        C625   1.404       .  A
C622        C629   1.401       .  A
C625        C626   1.395       .  A
C625        F630   1.358       .  S
C626        C627   1.405       .  A
C626        F632   1.358       .  S
C627        C628   1.409       .  A
C628        C629   1.396       .  A
C628        F631   1.358       .  S
C629        F633   1.358       .  S
C636        C637   1.402       .  A
C636        C641   1.391       .  A
C636        F654   1.358       .  S
C637        C642   1.471       .  S
C637        C638   1.403       .  A
C638        C639   1.398       .  A
C638        F643   1.358       .  S
C639        C640   1.410       .  A
C639        F655   1.358       .  S
C640        C641   1.409       .  A
C641        F644   1.358       .  S
C642        C645   1.403       .  A
C642        C649   1.401       .  A
C645        C646   1.394       .  A
C645        F650   1.358       .  S
C646        C647   1.409       .  A
C646        F652   1.358       .  S
C647        C648   1.411       .  A
C648        C649   1.396       .  A
C648        F651   1.357       .  S
C649        F653   1.358       .  S
C656        C657   1.402       .  A
C656        C661   1.398       .  A
C656        F674   1.358       .  S
C657        C662   1.476       .  S
C657        C658   1.403   1_565  A
C658        C659   1.394   1_545  A
C658        F663   1.359       .  S
C659        C660   1.411       .  A
C659        F675   1.356   1_565  S
C660        C661   1.414       .  A
C661        F664   1.358       .  S
C662        C665   1.409       .  A
C662        C669   1.404       .  A
C665        C666   1.402       .  A
C665        F670   1.357       .  S
C666        C667   1.402   1_455  A
C666        F672   1.357       .  S
C667        C668   1.401       .  A
C668        C669   1.389   1_655  A
C668        F671   1.359       .  S
C669        F673   1.358       .  S
C676        C677   1.405       .  A
C676        C681   1.398       .  A
C676        F694   1.358       .  S
C677        C682   1.476       .  S
C677        C678   1.406       .  A
C678        C679   1.395       .  A
C678        F683   1.358       .  S
C679        C680   1.403       .  A
C679        F695   1.358       .  S
C680        C681   1.405       .  A
C681        F684   1.358       .  S
C682        C685   1.407       .  A
C682        C689   1.405       .  A
C685        C686   1.400       .  A
C685        F690   1.357       .  S
C686        C687   1.404       .  A
C686        F692   1.357       .  S
C687        C688   1.402       .  A
C688        C689   1.391       .  A
C688        F691   1.358       .  S
C689        F693   1.358       .  S
C696        C697   1.405       .  A
C696        C701   1.396       .  A
C696        F714   1.358       .  S
C697        C702   1.480       .  S
C697        C698   1.405       .  A
C698        C699   1.398       .  A
C698        F703   1.358       .  S
C699        C700   1.410       .  A
C699        F715   1.358       .  S
C700        C701   1.410       .  A
C701        F704   1.358       .  S
C702        C705   1.405       .  A
C702        C709   1.405       .  A
C705        C706   1.399       .  A
C705        F710   1.358       .  S
C706        C707   1.409       .  A
C706        F712   1.357       .  S
C707        C708   1.410       .  A
C708        C709   1.395       .  A
C708        F711   1.358       .  S
C709        F713   1.358       .  S
C716        C717   1.401       .  A
C716        C721   1.397       .  A
C716        F734   1.358       .  S
C717        C722   1.473       .  S
C717        C718   1.401       .  A
C718        C719   1.399       .  A
C718        F723   1.358       .  S
C719        C720   1.412       .  A
C719        F735   1.358       .  S
C720        C721   1.411       .  A
C721        F724   1.358       .  S
C722        C725   1.401       .  A
C722        C729   1.403       .  A
C725        C726   1.395       .  A
C725        F730   1.358       .  S
C726        C727   1.408       .  A
C726        F732   1.358       .  S
C727        C728   1.408       .  A
C728        C729   1.402       .  A
C728        F731   1.358       .  S
C729        F733   1.357       .  S
C736        C737   1.399       .  A
C736        C741   1.392       .  A
C736        F754   1.359       .  S
C737        C742   1.465       .  S
C737        C738   1.399       .  A
C738        C739   1.398       .  A
C738        F743   1.358       .  S
C739        C740   1.413       .  A
C739        F755   1.357       .  S
C740        C741   1.413       .  A
C741        F744   1.358       .  S
C742        C745   1.402       .  A
C742        C749   1.400       .  A
C745        C746   1.399       .  A
C745        F750   1.357       .  S
C746        C747   1.409       .  A
C746        F752   1.358       .  S
C747        C748   1.408       .  A
C748        C749   1.390       .  A
C748        F751   1.359       .  S
C749        F753   1.358       .  S
C756        C757   1.404       .  A
C756        C761   1.402       .  A
C756        F774   1.358       .  S
C757        C762   1.477       .  S
C757        C758   1.402       .  A
C758        C759   1.394       .  A
C758        F763   1.358       .  S
C759        C760   1.412       .  A
C759        F775   1.358       .  S
C760        C761   1.411       .  A
C761        F764   1.358       .  S
C762        C765   1.403       .  A
C762        C769   1.403       .  A
C765        C766   1.398       .  A
C765        F770   1.358       .  S
C766        C767   1.411       .  A
C766        F772   1.358       .  S
C767        C768   1.410       .  A
C768        C769   1.399       .  A
C768        F771   1.357       .  S
C769        F773   1.358       .  S
C776        C777   1.402       .  A
C776        C781   1.392       .  A
C776        F794   1.358       .  S
C777        C782   1.474       .  S
C777        C778   1.403       .  A
C778        C779   1.400       .  A
C778        F783   1.358       .  S
C779        C780   1.412       .  A
C779        F795   1.358       .  S
C780        C781   1.411       .  A
C781        F784   1.358       .  S
C782        C785   1.401       .  A
C782        C789   1.402       .  A
C785        C786   1.396       .  A
C785        F790   1.358       .  S
C786        C787   1.413       .  A
C786        F792   1.356       .  S
C787        C788   1.412   1_545  A
C788        C789   1.398   1_565  A
C788        F791   1.357       .  S
C789        F793   1.358       .  S
C796        C797   1.403       .  A
C796        C801   1.392       .  A
C796        F814   1.358       .  S
C797        C802   1.476       .  S
C797        C798   1.407       .  A
C798        C799   1.402       .  A
C798        F803   1.357       .  S
C799        C800   1.404       .  A
C799        F815   1.357       .  S
C800        C801   1.404       .  A
C801        F804   1.358       .  S
C802        C805   1.403       .  A
C802        C809   1.401       .  A
C805        C806   1.397       .  A
C805        F810   1.358       .  S
C806        C807   1.411       .  A
C806        F812   1.357       .  S
C807        C808   1.413       .  A
C808        C809   1.398       .  A
C808        F811   1.357       .  S
C809        F813   1.358       .  S
C816        C817   1.404       .  A
C816        C821   1.400       .  A
C816        F834   1.358       .  S
C817        C822   1.470       .  S
C817        C818   1.400       .  A
C818        C819   1.392       .  A
C818        F823   1.358       .  S
C819        C820   1.409       .  A
C819        F835   1.359       .  S
C820        C821   1.408       .  A
C821        F824   1.358       .  S
C822        C825   1.399       .  A
C822        C829   1.400       .  A
C825        C826   1.394       .  A
C825        F830   1.359       .  S
C826        C827   1.414       .  A
C826        F832   1.358       .  S
C827        C828   1.415       .  A
C828        C829   1.399       .  A
C828        F831   1.356       .  S
C829        F833   1.358       .  S
C836        C837   1.407       .  A
C836        C841   1.397   1_455  A
C836        F854   1.358       .  S
C837        C842   1.477       .  S
C837        C838   1.406   1_455  A
C838        C839   1.397       .  A
C838        F843   1.358       .  S
C839        C840   1.402       .  A
C839        F855   1.358       .  S
C840        C841   1.402       .  A
C841        F844   1.358       .  S
C842        C845   1.405       .  A
C842        C849   1.407       .  A
C845        C846   1.393       .  A
C845        F850   1.358       .  S
C846        C847   1.402       .  A
C846        F852   1.358       .  S
C847        C848   1.403       .  A
C848        C849   1.399       .  A
C848        F851   1.357       .  S
C849        F853   1.358       .  S
C856        C857   1.404       .  A
C856        C861   1.398       .  A
C856        F874   1.358       .  S
C857        C862   1.478       .  S
C857        C858   1.404       .  A
C858        C859   1.395       .  A
C858        F863   1.358       .  S
C859        C860   1.409       .  A
C859        F875   1.358       .  S
C860        C861   1.410       .  A
C861        F864   1.358       .  S
C862        C865   1.405       .  A
C862        C869   1.405       .  A
C865        C866   1.397       .  A
C865        F870   1.358       .  S
C866        C867   1.407       .  A
C866        F872   1.358       .  S
C867        C868   1.408       .  A
C868        C869   1.397       .  A
C868        F871   1.358       .  S
C869        F873   1.358       .  S
C876        C877   1.406       .  A
C876        C881   1.398       .  A
C876        F894   1.358       .  S
C877        C882   1.477       .  S
C877        C878   1.405       .  A
C878        C879   1.397       .  A
C878        F883   1.358       .  S
C879        C880   1.402       .  A
C879        F895   1.358       .  S
C880        C881   1.403       .  A
C881        F884   1.358       .  S
C882        C885   1.405       .  A
C882        C889   1.404       .  A
C885        C886   1.400       .  A
C885        F890   1.358       .  S
C886        C887   1.408       .  A
C886        F892   1.358       .  S
C887        C888   1.408       .  A
C888        C889   1.394       .  A
C888        F891   1.358       .  S
C889        F893   1.358       .  S
C896        C897   1.407       .  A
C896        C901   1.397       .  A
C896        F914   1.358       .  S
C897        C902   1.469       .  S
C897        C898   1.402       .  A
C898        C899   1.388       .  A
C898        F903   1.358       .  S
C899        C900   1.403       .  A
C899        F915   1.358       .  S
C900        C901   1.402       .  A
C901        F904   1.357       .  S
C902        C905   1.405       .  A
C902        C909   1.403       .  A
C905        C906   1.395       .  A
C905        F910   1.358       .  S
C906        C907   1.404       .  A
C906        F912   1.358       .  S
C907        C908   1.405       .  A
C908        C909   1.393       .  A
C908        F911   1.358       .  S
C909        F913   1.358       .  S
C916        C917   1.404       .  A
C916        C921   1.395       .  A
C916        F934   1.358       .  S
C917        C922   1.478       .  S
C917        C918   1.404       .  A
C918        C919   1.397       .  A
C918        F923   1.358       .  S
C919        C920   1.410       .  A
C919        F935   1.358   1_545  S
C920        C921   1.409       .  A
C921        F924   1.358       .  S
C922        C925   1.405       .  A
C922        C929   1.406       .  A
C925        C926   1.393       .  A
C925        F930   1.358       .  S
C926        C927   1.404       .  A
C926        F932   1.358       .  S
C927        C928   1.406       .  A
C928        C929   1.401       .  A
C928        F931   1.358       .  S
C929        F933   1.358       .  S
C936        C937   1.402       .  A
C936        C941   1.392       .  A
C936        F954   1.358       .  S
C937        C942   1.460       .  S
C937        C938   1.401       .  A
C938        C939   1.394   1_455  A
C938        F943   1.358       .  S
C939        C940   1.405       .  A
C939        F955   1.358       .  S
C940        C941   1.403   1_655  A
C941        F944   1.358       .  S
C942        C945   1.399       .  A
C942        C949   1.404       .  A
C945        C946   1.387       .  A
C945        F950   1.358       .  S
C946        C947   1.402       .  A
C946        F952   1.358       .  S
C947        C948   1.402       .  A
C948        C949   1.397       .  A
C948        F951   1.357       .  S
C949        F953   1.358       .  S
C956        C957   1.402       .  A
C956        C961   1.392       .  A
C956        F974   1.359       .  S
C957        C962   1.470       .  S
C957        C958   1.403       .  A
C958        C959   1.396       .  A
C958        F963   1.358       .  S
C959        C960   1.408       .  A
C959        F975   1.357       .  S
C960        C961   1.410       .  A
C961        F964   1.358       .  S
C962        C965   1.403       .  A
C962        C969   1.403       .  A
C965        C966   1.393       .  A
C965        F970   1.358       .  S
C966        C967   1.407       .  A
C966        F972   1.358       .  S
C967        C968   1.408       .  A
C968        C969   1.395       .  A
C968        F971   1.358       .  S
C969        F973   1.358       .  S
C976        C977   1.401       .  A
C976        C981   1.391       .  A
C976        F994   1.359       .  S
C977        C982   1.468       .  S
C977        C978   1.402       .  A
C978        C979   1.400       .  A
C978        F983   1.358       .  S
C979        C980   1.409       .  A
C979        F995   1.358       .  S
C980        C981   1.409       .  A
C981        F984   1.358       .  S
C982        C985   1.403       .  A
C982        C989   1.402       .  A
C985        C986   1.395       .  A
C985        F990   1.358   1_655  S
C986        C987   1.407       .  A
C986        F992   1.358   1_655  S
C987        C988   1.407       .  A
C988        C989   1.395       .  A
C988        F991   1.358       .  S
C989        F993   1.358       .  S
C996        C997   1.405       .  A
C996       C1001   1.400       .  A
C996       F1014   1.358       .  S
C997       C1002   1.472       .  S
C997        C998   1.402       .  A
C998        C999   1.393       .  A
C998       F1003   1.358       .  S
C999       C1000   1.402       .  A
C999       F1015   1.358       .  S
C1000      C1001   1.405       .  A
C1001      F1004   1.357       .  S
C1002      C1005   1.404       .  A
C1002      C1009   1.405       .  A
C1005      C1006   1.397       .  A
C1005      F1010   1.358       .  S
C1006      C1007   1.403       .  A
C1006      F1012   1.358       .  S
C1007      C1008   1.402       .  A
C1008      C1009   1.397       .  A
C1008      F1011   1.358       .  S
C1009      F1013   1.358       .  S
C1016      C1017   1.405       .  A
C1016      C1021   1.400       .  A
C1016      F1034   1.358       .  S
C1017      C1022   1.476       .  S
C1017      C1018   1.402       .  A
C1018      C1019   1.390       .  A
C1018      F1023   1.359       .  S
C1019      C1020   1.411       .  A
C1019      F1035   1.357       .  S
C1020      C1021   1.411       .  A
C1021      F1024   1.357       .  S
C1022      C1025   1.406       .  A
C1022      C1029   1.406       .  A
C1025      C1026   1.395       .  A
C1025      F1030   1.358       .  S
C1026      C1027   1.404       .  A
C1026      F1032   1.358       .  S
C1027      C1028   1.404       .  A
C1028      C1029   1.394       .  A
C1028      F1031   1.358       .  S
C1029      F1033   1.358       .  S
C1036      C1037   1.401       .  A
C1036      C1041   1.397       .  A
C1036      F1054   1.358       .  S
C1037      C1042   1.467       .  S
C1037      C1038   1.401       .  A
C1038      C1039   1.396       .  A
C1038      F1043   1.358       .  S
C1039      C1040   1.407       .  A
C1039      F1055   1.358       .  S
C1040      C1041   1.408       .  A
C1041      F1044   1.358       .  S
C1042      C1045   1.404       .  A
C1042      C1049   1.400       .  A
C1045      C1046   1.400       .  A
C1045      F1050   1.357       .  S
C1046      C1047   1.405       .  A
C1046      F1052   1.357       .  S
C1047      C1048   1.403       .  A
C1048      C1049   1.390       .  A
C1048      F1051   1.358       .  S
C1049      F1053   1.358       .  S
C1056      C1057   1.402       .  A
C1056      C1061   1.393       .  A
C1056      F1074   1.358       .  S
C1057      C1062   1.469       .  S
C1057      C1058   1.402       .  A
C1058      C1059   1.396       .  A
C1058      F1063   1.358       .  S
C1059      C1060   1.407       .  A
C1059      F1075   1.358       .  S
C1060      C1061   1.409       .  A
C1061      F1064   1.358       .  S
C1062      C1065   1.402       .  A
C1062      C1069   1.402       .  A
C1065      C1066   1.394       .  A
C1065      F1070   1.358       .  S
C1066      C1067   1.409       .  A
C1066      F1072   1.358       .  S
C1067      C1068   1.409       .  A
C1068      C1069   1.397       .  A
C1068      F1071   1.358       .  S
C1069      F1073   1.358       .  S
C1076      C1077   1.402       .  A
C1076      C1081   1.400       .  A
C1076      F1094   1.358       .  S
C1077      C1082   1.474       .  S
C1077      C1078   1.400       .  A
C1078      C1079   1.393       .  A
C1078      F1083   1.359       .  S
C1079      C1080   1.414       .  A
C1079      F1095   1.358   1_455  S
C1080      C1081   1.412       .  A
C1081      F1084   1.357       .  S
C1082      C1085   1.402       .  A
C1082      C1089   1.403       .  A
C1085      C1086   1.396       .  A
C1085      F1090   1.358   1_565  S
C1086      C1087   1.409       .  A
C1086      F1092   1.358   1_565  S
C1087      C1088   1.409       .  A
C1088      C1089   1.398       .  A
C1088      F1091   1.357       .  S
C1089      F1093   1.358       .  S
