geometry optimzed in LAMMPS
_audit_creation_date              2020-11-30 
_audit_creation_method            'lammps2cif' 
_symmetry_space_group_name_H-M    'P1' 
_symmetry_Int_Tables_number       1 
_symmetry_cell_setting            triclinic 
loop_ 
_symmetry_equiv_pos_as_xyz 
  x,y,z 
_cell_length_a                    28.38326811 
_cell_length_b                    28.019004717551027 
_cell_length_c                    27.578336088318654 
_cell_angle_alpha                 89.89581107776246 
_cell_angle_beta                  89.99961716713956 
_cell_angle_gamma                 90.10365002437383 
loop_ 
_atom_site_label 
_atom_site_type_symbol 
_atom_site_fract_x 
_atom_site_fract_y 
_atom_site_fract_z 
_atom_site_charge 
Zn1        Zn  0.07010629  0.99589194  0.00403286     1.49700
Zn2        Zn  0.98341923  0.00230513  0.08031949     1.49400
Zn3        Zn  0.99275248  0.07668008  0.98957931     1.49100
Zn4        Zn  0.96882987  0.97049953  0.96956215     1.49500
O5          O  0.00399012  0.01098933  0.01181504    -1.83600
O6          O  0.09548751  0.97210426  0.06784349    -0.74200
O7          O  0.94048277  0.06116147  0.09573778    -0.74000
O8          O  0.04780949  0.09965427  0.94629475    -0.73600
O9          O  0.04010240  0.98131363  0.12454114    -0.74200
O10         O  0.10424738  0.05489473  0.97900101    -0.73800
O11         O  0.97772114  0.11434672  0.04955758    -0.74400
O12         O  0.91757004  0.00706081  0.93453527    -0.73800
O13         O  0.94096320  0.94450914  0.08554761    -0.74600
O14         O  0.93340590  0.08312271  0.94870342    -0.74000
O15         O  0.93840084  0.92012292  0.00906826    -0.74400
O16         O  0.01107898  0.93808702  0.92162758    -0.74300
O17         O  0.08293671  0.94403746  0.95256674    -0.74100
C18         C  0.08129763  0.96738015  0.11153211     0.77700
C19         C  0.94280291  0.10284736  0.07662146     0.78200
C20         C  0.09042658  0.08528548  0.94732170     0.77100
C21         C  0.90755817  0.05120243  0.92959133     0.77500
C22         C  0.92829812  0.91437504  0.05364949     0.78600
C23         C  0.05490249  0.92828627  0.92024549     0.77700
C24         C  0.06255792  0.39069639  0.04551744     0.03700
C25         C  0.02313417  0.36316989  0.03546958    -0.12500
C26         C  0.01867564  0.31713890  0.05208556     0.01200
C27         C  0.05441516  0.29616631  0.07994701    -0.11000
C28         C  0.09612050  0.32157436  0.09033000     0.03700
C29         C  0.10010157  0.36999834  0.07314474    -0.10400
H30         H  0.99391825  0.37843862  0.01515898     0.09200
H31         H  0.04960647  0.26023922  0.09375225     0.06800
H32         H  0.13133367  0.39077154  0.08109843     0.06600
C33         C  0.90199555  0.13673538  0.07864372     0.03700
C34         C  0.89592261  0.16673418  0.03848047    -0.12500
C35         C  0.86457360  0.20521663  0.03993437     0.01200
C36         C  0.82833077  0.20404234  0.07421664    -0.11000
C37         C  0.83287267  0.17538206  0.11572503     0.03700
C38         C  0.87071952  0.14194111  0.11822674    -0.10400
H39         H  0.92132982  0.16491456  0.00935780     0.09200
H40         H  0.80298556  0.23296728  0.07409907     0.06800
H41         H  0.87717980  0.12188421  0.15096638     0.06600
C42         C  0.81176848  0.15581448  0.38892328     0.03700
C43         C  0.84709533  0.12218727  0.40015160    -0.12500
C44         C  0.88385138  0.13437382  0.43274896     0.01200
C45         C  0.88550686  0.18088515  0.45174183    -0.11000
C46         C  0.84812242  0.21319927  0.44419044     0.03700
C47         C  0.81318177  0.20062087  0.41059575    -0.10400
H48         H  0.84606864  0.08715748  0.38363374     0.09200
H49         H  0.91327708  0.19004780  0.47698356     0.06800
H50         H  0.78512959  0.22528729  0.40204238     0.06600
C51         C  0.68268592  0.18001113  0.63082265     0.03700
C52         C  0.64774100  0.15219882  0.60680916    -0.12500
C53         C  0.64559467  0.15072270  0.55454560     0.01200
C54         C  0.68044894  0.17610186  0.52825952    -0.11000
C55         C  0.71439016  0.20361025  0.55308235     0.03700
C56         C  0.71219455  0.20808371  0.60280683    -0.10400
H57         H  0.62298787  0.13177563  0.62836153     0.09200
H58         H  0.68234073  0.17306025  0.48915794     0.06800
H59         H  0.73684498  0.23231098  0.62026232     0.06600
Zn60       Zn  0.79546137  0.19970535  0.26683846     1.49700
Zn61       Zn  0.73348260  0.29255821  0.29212569     1.49400
Zn62       Zn  0.70917472  0.23152336  0.19616368     1.49100
Zn63       Zn  0.69046752  0.19299894  0.30267474     1.49500
O64         O  0.73282580  0.22974913  0.26293591    -1.83600
O65         O  0.84302355  0.24543422  0.29823371    -0.74200
O66         O  0.70502934  0.33904650  0.24287261    -0.74000
O67         O  0.76340473  0.20877706  0.15181195    -0.73600
O68         O  0.79923421  0.31005841  0.31152923    -0.74200
O69         O  0.81935649  0.18066427  0.20078868    -0.73800
O70         O  0.68411159  0.29820835  0.17705148    -0.74400
O71         O  0.66658698  0.14071194  0.25472739    -0.73800
O72         O  0.69474906  0.29754194  0.35284646    -0.74600
O73         O  0.65685006  0.18334058  0.18725151    -0.74000
O74         O  0.64261350  0.24446428  0.32802508    -0.74400
O75         O  0.73516086  0.16786463  0.35596641    -0.74300
O76         O  0.79134236  0.14108515  0.30784493    -0.74100
C77         C  0.83857931  0.28830006  0.31316711     0.77700
C78         C  0.68659734  0.33745268  0.20043834     0.78200
C79         C  0.80322776  0.18802105  0.15837773     0.77100
C80         C  0.65579031  0.14360347  0.20952033     0.77500
C81         C  0.65226260  0.28529010  0.34722144     0.78600
C82         C  0.77638811  0.15000055  0.35006087     0.77700
C83         C  0.78888156  0.59700604  0.57364568     0.03700
C84         C  0.76234285  0.58342560  0.53264852    -0.12500
C85         C  0.77708787  0.54464179  0.50422289     0.01200
C86         C  0.81753479  0.52001056  0.51578202    -0.11000
C87         C  0.84748812  0.53531728  0.55237553     0.03700
C88         C  0.83281908  0.57362282  0.58244927    -0.10400
H89         H  0.73039113  0.60239872  0.52321529     0.09200
H90         H  0.82805287  0.49117755  0.49185091     0.06800
H91         H  0.85510387  0.58512005  0.61209885     0.06600
C92         C  0.68290258  0.63319275  0.35249459     0.03700
C93         C  0.64876326  0.63433423  0.39002184    -0.12500
C94         C  0.62885207  0.59093273  0.40629886     0.01200
C95         C  0.64347276  0.54804877  0.38512053    -0.11000
C96         C  0.68279570  0.54680056  0.35442188     0.03700
C97         C  0.69489543  0.58950487  0.33127292    -0.10400
H98         H  0.63950902  0.66767822  0.40734365     0.09200
H99         H  0.62935562  0.51499635  0.39934009     0.06800
H100        H  0.72135503  0.58879575  0.30294957     0.06600
Zn101      Zn  0.94411548  0.41829045  0.52185110     1.49700
Zn102      Zn  0.99868800  0.51056514  0.55192152     1.49400
Zn103      Zn  0.04972207  0.41232105  0.55712028     1.49100
Zn104      Zn  0.02802877  0.45682683  0.45238420     1.49500
O105        O  0.00518806  0.44860322  0.52014620    -1.83600
O106        O  0.89658745  0.46953907  0.53482317    -0.74200
O107        O  0.04076367  0.52106438  0.60909426    -0.74000
O108        O  0.01052906  0.37280454  0.60977532    -0.73600
O109        O  0.93146573  0.53347995  0.56565823    -0.74200
O110        O  0.93748787  0.37542738  0.58034387    -0.73800
O111        O  0.09163815  0.46530943  0.58675346    -0.74400
O112        O  0.08082839  0.41112498  0.43754469    -0.73800
O113        O  0.02877425  0.55375066  0.50543386    -0.74600
O114        O  0.09133860  0.37282711  0.50754302    -0.74000
O115        O  0.05235097  0.52651352  0.43479232    -0.74400
O116        O  0.97679465  0.42978130  0.40968718    -0.74300
O117        O  0.92983594  0.38515000  0.45646964    -0.74100
C118        C  0.89428701  0.51148752  0.55280035     0.77700
C119        C  0.08280154  0.50610461  0.60582586     0.78200
C120        C  0.96625502  0.36255008  0.61328581     0.77100
C121        C  0.10088930  0.37855175  0.46211293     0.77500
C122        C  0.04905631  0.56086632  0.46499361     0.78600
C123        C  0.94453981  0.39798296  0.41453299     0.77700
C124        C  0.43385026  0.84548766  0.15790936     0.03700
C125        C  0.38399694  0.84432998  0.16647059    -0.12500
C126        C  0.36580997  0.81637541  0.20544198     0.01200
C127        C  0.39727522  0.79457778  0.23694803    -0.11000
C128        C  0.44399416  0.78931766  0.22461532     0.03700
C129        C  0.46301217  0.81558447  0.18591975    -0.10400
H130        H  0.36019733  0.86324001  0.14255181     0.09200
H131        H  0.38409358  0.77451711  0.26792274     0.06800
H132        H  0.49990832  0.81157567  0.17669165     0.06600
C133        C  0.56972498  0.63200252  0.14755773     0.03700
C134        C  0.54353610  0.62806395  0.19069842    -0.12500
C135        C  0.55600857  0.65322359  0.23305546     0.01200
C136        C  0.59968941  0.67595860  0.23352391    -0.11000
C137        C  0.62526251  0.68419593  0.19113307     0.03700
C138        C  0.61121237  0.66082476  0.14775045    -0.10400
H139        H  0.51164013  0.60702471  0.19022266     0.09200
H140        H  0.61256849  0.69125620  0.26675975     0.06800
H141        H  0.63135800  0.66584738  0.11479577     0.06600
C142        C  0.11318747  0.06608154  0.35981218     0.03700
C143        C  0.10597637  0.10960911  0.33355993    -0.12500
C144        C  0.12124983  0.11252949  0.28445826     0.01200
C145        C  0.13702733  0.07062398  0.26330600    -0.11000
C146        C  0.16234072  0.03906870  0.29255255     0.03700
C147        C  0.14652798  0.03371496  0.34076710    -0.10400
H148        H  0.08950017  0.14001572  0.35072217     0.09200
H149        H  0.14300428  0.07089393  0.22443968     0.06800
H150        H  0.15929925  0.00555754  0.36385976     0.06600
C151        C  0.11514449  0.94438018  0.14574065     0.03700
C152        C  0.10425505  0.90409418  0.17547161    -0.12500
C153        C  0.14206589  0.87585238  0.19330290     0.01200
C154        C  0.18750328  0.88599288  0.17673175    -0.11000
C155        C  0.19851345  0.93305329  0.16592617     0.03700
C156        C  0.16233838  0.96014112  0.14418390    -0.10400
H157        H  0.06810043  0.89477388  0.18368824     0.09200
H158        H  0.21574012  0.86275108  0.18755497     0.06800
H159        H  0.16979696  0.99468585  0.12851814     0.06600
Zn160      Zn  0.25609028  0.71770401  0.25182919     1.49700
Zn161      Zn  0.23595255  0.82348951  0.27931278     1.49400
Zn162      Zn  0.14918349  0.74300694  0.27189931     1.49100
Zn163      Zn  0.22972617  0.74469383  0.36038977     1.49500
O164        O  0.21715795  0.75685112  0.29125367    -1.83600
O165        O  0.30894916  0.75817054  0.22506719    -0.74200
O166        O  0.17234144  0.85591046  0.26956579    -0.74000
O167        O  0.14134087  0.69806462  0.21341286    -0.73600
O168        O  0.28475823  0.83310931  0.22417836    -0.74200
O169        O  0.21727920  0.69424521  0.19513725    -0.73800
O170        O  0.12323838  0.80352105  0.23684543    -0.74400
O171        O  0.16871021  0.71720384  0.39016546    -0.73800
O172        O  0.27411236  0.85316285  0.33545062    -0.74600
O173        O  0.11435064  0.71277916  0.33126292    -0.74000
O174        O  0.26140204  0.80209928  0.39536646    -0.74400
O175        O  0.27670785  0.69158432  0.36937992    -0.74300
O176        O  0.28466562  0.66558832  0.29356178    -0.74100
C177        C  0.31616461  0.80219909  0.21528336     0.77700
C178        C  0.14213327  0.84487549  0.23715757     0.78200
C179        C  0.17397385  0.68978286  0.18305203     0.77100
C180        C  0.12794480  0.70424657  0.37487965     0.77500
C181        C  0.28042928  0.84053535  0.37930105     0.78600
C182        C  0.29202178  0.66125612  0.33916964     0.77700
Zn183      Zn  0.24523068  0.17541034  0.22018548     1.49700
Zn184      Zn  0.15730568  0.25426146  0.22293909     1.49400
Zn185      Zn  0.26635900  0.27965416  0.23916759     1.49100
Zn186      Zn  0.23407877  0.25200439  0.13089111     1.49500
O187        O  0.22490509  0.24025305  0.20207821    -1.83600
O188        O  0.18889188  0.14812363  0.25273761    -0.74200
O189        O  0.15277512  0.29586488  0.28401313    -0.74000
O190        O  0.32255789  0.24133885  0.26455481    -0.73600
O191        O  0.12420795  0.19276634  0.24937913    -0.74200
O192        O  0.30048219  0.16587154  0.26713455    -0.73800
O193        O  0.22945592  0.30435448  0.29743968    -0.74400
O194        O  0.28138577  0.30653385  0.11850877    -0.73800
O195        O  0.12260722  0.28801198  0.16582511    -0.74600
O196        O  0.29012571  0.33192503  0.19456804    -0.74000
O197        O  0.17161374  0.28251059  0.10251762    -0.74400
O198        O  0.26064077  0.18906323  0.09773823    -0.74300
O199        O  0.26890748  0.13891474  0.16006868    -0.74100
C200        C  0.14535977  0.15457968  0.26239958     0.77700
C201        C  0.18658833  0.30781660  0.31169257     0.78200
C202        C  0.33121251  0.19768416  0.27509937     0.77100
C203        C  0.29523717  0.33786262  0.14878371     0.77500
C204        C  0.13258842  0.29684968  0.12126383     0.78600
C205        C  0.27430218  0.14863027  0.11510076     0.77700
C206        C  0.61023863  0.83038893  0.62761999     0.03700
C207        C  0.60137808  0.86081347  0.58689063    -0.12500
C208        C  0.57532077  0.90418594  0.59390281     0.01200
C209        C  0.55711691  0.91397596  0.64034079    -0.11000
C210        C  0.55749460  0.87884022  0.67610129     0.03700
C211        C  0.59276374  0.84456703  0.67288035    -0.10400
H212        H  0.61419810  0.85123655  0.55126562     0.09200
H213        H  0.53322920  0.94374824  0.64528692     0.06800
H214        H  0.59955507  0.82237253  0.70424529     0.06600
C215        C  0.36766290  0.69067772  0.65549164     0.03700
C216        C  0.39588363  0.72830946  0.67030705    -0.12500
C217        C  0.44234537  0.73180253  0.65614671     0.01200
C218        C  0.46273648  0.69652299  0.62681087    -0.11000
C219        C  0.43581796  0.65665544  0.61253377     0.03700
C220        C  0.38771464  0.65410417  0.62686046    -0.10400
H221        H  0.38130951  0.75625082  0.69312504     0.09200
H222        H  0.49912172  0.70001833  0.61542654     0.06800
H223        H  0.36625055  0.62528305  0.61396158     0.06600
Zn224      Zn  0.44845524  0.05547967  0.46346499     1.49700
Zn225      Zn  0.55654122  0.08156475  0.43450023     1.49400
Zn226      Zn  0.53439075  0.04473387  0.53899674     1.49100
Zn227      Zn  0.52504249  0.96687161  0.45438282     1.49500
O228        O  0.51624469  0.03703867  0.47150815    -1.83600
O229        O  0.43781048  0.10100076  0.40740296    -0.74200
O230        O  0.60107065  0.12360336  0.48242712    -0.74000
O231        O  0.48010846  0.07194243  0.57457974    -0.73600
O232        O  0.51109125  0.12189564  0.38764517    -0.74200
O233        O  0.41877341  0.08517139  0.52657030    -0.73800
O234        O  0.58689361  0.08995052  0.55352219    -0.74400
O235        O  0.55176888  0.92618914  0.51191810    -0.73800
O236        O  0.60080355  0.03735338  0.39446595    -0.74600
O237        O  0.55461407  0.98218334  0.56836326    -0.74000
O238        O  0.57654822  0.96190924  0.40428274    -0.74400
O239        O  0.46184214  0.93455590  0.43183391    -0.74300
O240        O  0.41277455  0.99507505  0.44553488    -0.74100
C241        C  0.46605450  0.12470674  0.38079230     0.77700
C242        C  0.60940084  0.12018886  0.52839014     0.78200
C243        C  0.43809794  0.08670393  0.56840438     0.77100
C244        C  0.56106674  0.93904575  0.55526961     0.77500
C245        C  0.60514672  0.99235129  0.38637215     0.78600
C246        C  0.41998531  0.95142004  0.43407216     0.77700
C247        C  0.41153606  0.37777904  0.56961219     0.03700
C248        C  0.41578876  0.33714672  0.53989818    -0.12500
C249        C  0.38215049  0.30096337  0.54349268     0.01200
C250        C  0.35910922  0.29548322  0.58765703    -0.11000
C251        C  0.35452667  0.33442406  0.61885017     0.03700
C252        C  0.38120285  0.37605259  0.61026497    -0.10400
H253        H  0.43594803  0.33918795  0.50657199     0.09200
H254        H  0.33635976  0.26480920  0.59291083     0.06800
H255        H  0.37651795  0.40710712  0.63308877     0.06600
C256        C  0.13754848  0.34846277  0.43747132     0.03700
C257        C  0.13983131  0.34232582  0.38576883    -0.12500
C258        C  0.17827072  0.31726097  0.36437171     0.01200
C259        C  0.21215037  0.29762661  0.39481801    -0.11000
C260        C  0.21177400  0.30578131  0.44413330     0.03700
C261        C  0.17428019  0.32990468  0.46589257    -0.10400
H262        H  0.11286160  0.35754888  0.36273120     0.09200
H263        H  0.24201393  0.27857998  0.37966845     0.06800
H264        H  0.17591147  0.33762907  0.50435936     0.06600
C265        C  0.61601872  0.32376436  0.34765629     0.03700
C266        C  0.60882133  0.35835143  0.38475585    -0.12500
C267        C  0.57575622  0.39616001  0.37751205     0.01200
C268        C  0.55259501  0.39948521  0.33262284    -0.11000
C269        C  0.55747119  0.36394125  0.29734846     0.03700
C270        C  0.59106525  0.32818323  0.30458174    -0.10400
H271        H  0.62730847  0.35503551  0.41892562     0.09200
H272        H  0.52637963  0.42705336  0.32708592     0.06800
H273        H  0.59619250  0.30100480  0.27729856     0.06600
C274        C  0.38068549  0.18489430  0.28828481     0.03700
C275        C  0.41391174  0.20892979  0.26064513    -0.12500
C276        C  0.45872447  0.21588699  0.27832131     0.01200
C277        C  0.47569432  0.18812224  0.31686214    -0.11000
C278        C  0.44583355  0.15552492  0.34074191     0.03700
C279        C  0.39665663  0.15581298  0.32764510    -0.10400
H280        H  0.40253222  0.23082634  0.23023637     0.09200
H281        H  0.51105907  0.19444305  0.33023379     0.06800
H282        H  0.37141449  0.13517107  0.34835932     0.06600
C283        C  0.60404344  0.54908304  0.86500552     0.03700
C284        C  0.59541322  0.50635502  0.84158205    -0.12500
C285        C  0.59356252  0.50381233  0.79157269     0.01200
C286        C  0.61288384  0.54147682  0.76392159    -0.11000
C287        C  0.63091957  0.58249397  0.78732305     0.03700
C288        C  0.62341925  0.58761381  0.83825190    -0.10400
H289        H  0.57971044  0.47790306  0.86280100     0.09200
H290        H  0.61298721  0.53930515  0.72469727     0.06800
H291        H  0.63103647  0.62115791  0.85607011     0.06600
C292        C  0.56962647  0.41767154  0.63751286     0.03700
C293        C  0.60952274  0.39732257  0.66100320    -0.12500
C294        C  0.60256961  0.35740172  0.69248902     0.01200
C295        C  0.55602238  0.34043627  0.69890416    -0.11000
C296        C  0.51892351  0.37209877  0.69011355     0.03700
C297        C  0.52481002  0.39895606  0.64812309    -0.10400
H298        H  0.64431717  0.41219631  0.65541978     0.09200
H299        H  0.54922752  0.31111094  0.72357229     0.06800
H300        H  0.49411250  0.41538469  0.63259167     0.06600
Zn301      Zn  0.48441279  0.51299321  0.57315875     1.49700
Zn302      Zn  0.47448665  0.47503527  0.46657559     1.49400
Zn303      Zn  0.49650047  0.58448949  0.48634020     1.49100
Zn304      Zn  0.57354523  0.49628055  0.50214270     1.49500
O305        O  0.50784812  0.51822839  0.50701910    -1.83600
O306        O  0.43842122  0.45804428  0.58090066    -0.74200
O307        O  0.42163812  0.51061042  0.43514077    -0.74000
O308        O  0.48058646  0.62866282  0.54420515    -0.73600
O309        O  0.44786398  0.42448012  0.50889205    -0.74200
O310        O  0.45348528  0.57483370  0.59682702    -0.73800
O311        O  0.43649545  0.58789821  0.44413430    -0.74400
O312        O  0.60985947  0.55583009  0.48148139    -0.73800
O313        O  0.51529727  0.44052555  0.41711710    -0.74600
O314        O  0.55486562  0.60166363  0.44580963    -0.74000
O315        O  0.58659231  0.44574381  0.44871803    -0.74400
O316        O  0.58968609  0.45895862  0.56429809    -0.74300
O317        O  0.53933398  0.49289873  0.61550108    -0.74100
C318        C  0.43362515  0.42259645  0.55259980     0.77700
C319        C  0.41022346  0.55419584  0.42861030     0.78200
C320        C  0.45780361  0.61811985  0.58291943     0.77100
C321        C  0.59698552  0.58547825  0.44838904     0.77500
C322        C  0.55880097  0.42898509  0.41673778     0.78600
C323        C  0.56933268  0.46035854  0.60549187     0.77700
C324        C  0.29471339  0.11070387  0.08248459     0.03700
C325        C  0.34035190  0.08955661  0.08999698    -0.12500
C326        C  0.35504052  0.05012582  0.06081613     0.01200
C327        C  0.32219301  0.02972066  0.02965035    -0.11000
C328        C  0.28122369  0.05326382  0.01750457     0.03700
C329        C  0.26705638  0.09373998  0.04366336    -0.10400
H330        H  0.36416500  0.10445439  0.11664923     0.09200
H331        H  0.33158659  0.99838974  0.00860469     0.06800
H332        H  0.23448146  0.11154610  0.03413289     0.06600
C333        C  0.17682495  0.13817212  0.85288435     0.03700
C334        C  0.19545184  0.09435096  0.83723337    -0.12500
C335        C  0.18418560  0.05179915  0.86130753     0.01200
C336        C  0.14175191  0.05115105  0.88677919    -0.11000
C337        C  0.12267879  0.09334013  0.90545832     0.03700
C338        C  0.13994697  0.13787048  0.88804871    -0.10400
H339        H  0.22426634  0.09423875  0.81150709     0.09200
H340        H  0.12834948  0.01753346  0.90028959     0.06800
H341        H  0.12663838  0.17099900  0.90276433     0.06600
C342        C  0.13984726  0.48976893  0.83112272     0.03700
C343        C  0.15194050  0.44034740  0.83273100    -0.12500
C344        C  0.19596541  0.42557846  0.81426088     0.01200
C345        C  0.22797738  0.46132155  0.80063121    -0.11000
C346        C  0.20977126  0.50309593  0.78188451     0.03700
C347        C  0.16672736  0.51983302  0.80058896    -0.10400
H348        H  0.12821840  0.41432634  0.84854209     0.09200
H349        H  0.26329432  0.45205488  0.78895776     0.06800
H350        H  0.15324822  0.55433867  0.78965357     0.06600
C351        C  0.12242448  0.53856883  0.61858892     0.03700
C352        C  0.11955729  0.57443128  0.65498682    -0.12500
C353        C  0.15937584  0.60360488  0.66407376     0.01200
C354        C  0.20040116  0.59645504  0.63659515    -0.11000
C355        C  0.20650446  0.55312465  0.61232382     0.03700
C356        C  0.16528537  0.53243744  0.59363017    -0.10400
H357        H  0.08800396  0.57829385  0.67666907     0.09200
H358        H  0.23139822  0.61751633  0.64521645     0.06800
H359        H  0.16882767  0.50326749  0.56814593     0.06600
Zn360      Zn  0.29644651  0.32482726  0.76233651     1.49700
Zn361      Zn  0.19477844  0.27162387  0.77451984     1.49400
Zn362      Zn  0.26311683  0.24826657  0.68620714     1.49100
Zn363      Zn  0.29571977  0.22163512  0.79372121     1.49500
O364        O  0.26176461  0.26595809  0.75526602    -1.83600
O365        O  0.25016865  0.37143889  0.78242277    -0.74200
O366        O  0.15382173  0.25139551  0.71563680    -0.74000
O367        O  0.28144515  0.30691951  0.64868984    -0.73600
O368        O  0.18055242  0.34037677  0.80149432    -0.74200
O369        O  0.33137782  0.34018718  0.70101327    -0.73800
O370        O  0.20213419  0.21244167  0.66624142    -0.74400
O371        O  0.33783152  0.18352636  0.74612239    -0.73800
O372        O  0.17720746  0.21936783  0.82392524    -0.74600
O373        O  0.31573015  0.20251314  0.67119507    -0.74000
O374        O  0.24477069  0.17879635  0.82328178    -0.74400
O375        O  0.33424655  0.25690347  0.84779790    -0.74300
O376        O  0.34248036  0.32946125  0.81751439    -0.74100
C377        C  0.20892067  0.37600180  0.79973411     0.77700
C378        C  0.16110111  0.21853546  0.68394077     0.78200
C379        C  0.31975225  0.32933128  0.65793717     0.77100
C380        C  0.34174493  0.17886347  0.69985521     0.77500
C381        C  0.20076403  0.18180053  0.83367654     0.78600
C382        C  0.35052317  0.29960959  0.85100825     0.77700
Zn383      Zn  0.49355173  0.88164498  0.01294728     1.49700
Zn384      Zn  0.48980363  0.97660616  0.08644015     1.49400
Zn385      Zn  0.57183767  0.96425884  0.00043904     1.49100
Zn386      Zn  0.46895444  0.98649589  0.97571710     1.49500
O387        O  0.50599297  0.95154785  0.02043755    -1.83600
O388        O  0.46718624  0.85520779  0.07825152    -0.74200
O389        O  0.55004394  0.01125158  0.11207779    -0.74000
O390        O  0.60013616  0.90752776  0.96185564    -0.73600
O391        O  0.46505616  0.91908988  0.12699438    -0.74200
O392        O  0.55133961  0.84757555  0.97938044    -0.73800
O393        O  0.60600971  0.98538853  0.06115388    -0.74400
O394        O  0.50728419  0.04142379  0.94638849    -0.73800
O395        O  0.43226520  0.02335986  0.08927762    -0.74600
O396        O  0.58223317  0.02464389  0.96025752    -0.74000
O397        O  0.41463021  0.01657075  0.01147718    -0.74400
O398        O  0.44498767  0.93886497  0.92684626    -0.74300
O399        O  0.44364951  0.86745258  0.96228222    -0.74100
C400        C  0.45613461  0.87491552  0.11871508     0.77700
C401        C  0.59323781  0.00984824  0.09819957     0.78200
C402        C  0.58798407  0.86374127  0.95730344     0.77100
C403        C  0.55088298  0.05319562  0.94517871     0.77500
C404        C  0.40387031  0.03046180  0.05423183     0.78600
C405        C  0.43553251  0.89411967  0.92599806     0.77700
C406        C  0.88056687  0.31800314  0.32091623     0.03700
C407        C  0.89625189  0.33507456  0.36681457    -0.12500
C408        C  0.92517728  0.37657632  0.36911582     0.01200
C409        C  0.93461952  0.40117472  0.32592622    -0.11000
C410        C  0.91683539  0.38523226  0.28200539     0.03700
C411        C  0.89420133  0.34172960  0.27885613    -0.10400
H412        H  0.88542430  0.31727634  0.39978726     0.09200
H413        H  0.95171380  0.43582200  0.32669872     0.06800
H414        H  0.87896232  0.33151311  0.24420361     0.06600
C415        C  0.86673053  0.63201850  0.16713746     0.03700
C416        C  0.86574266  0.58704986  0.18957864    -0.12500
C417        C  0.87888657  0.54612697  0.16411868     0.01200
C418        C  0.89114710  0.54920319  0.11580262    -0.11000
C419        C  0.90115835  0.59308894  0.09497200     0.03700
C420        C  0.88676552  0.63551056  0.11948242    -0.10400
H421        H  0.85429404  0.58360366  0.22692120     0.09200
H422        H  0.89986185  0.51664697  0.09641015     0.06800
H423        H  0.89204234  0.67006876  0.10270673     0.06600
C424        C  0.63064479  0.03758503  0.12421676     0.03700
C425        C  0.67791053  0.02447873  0.11617880    -0.12500
C426        C  0.71444433  0.04319016  0.14490992     0.01200
C427        C  0.70504593  0.08480534  0.17109704    -0.11000
C428        C  0.65902388  0.10034249  0.17902678     0.03700
C429        C  0.62112884  0.07637723  0.15601499    -0.10400
H430        H  0.68566551  0.99397660  0.09345918     0.09200
H431        H  0.73326443  0.10265954  0.19039087     0.06800
H432        H  0.58530342  0.08816967  0.16199134     0.06600
C433        C  0.64688198  0.97470165  0.35901257     0.03700
C434        C  0.67380845  0.00666377  0.33080017    -0.12500
C435        C  0.71783129  0.99213764  0.31323511     0.01200
C436        C  0.73774005  0.95133607  0.33251242    -0.11000
C437        C  0.70685785  0.91373370  0.34290323     0.03700
C438        C  0.66139389  0.92591253  0.36025732    -0.10400
H439        H  0.65927898  0.04066845  0.31958069     0.09200
H440        H  0.77372418  0.94371016  0.32177902     0.06800
H441        H  0.63774742  0.89830773  0.37312287     0.06600
C442        C  0.06609977  0.61122377  0.45647713     0.03700
C443        C  0.08983405  0.63023555  0.41506836    -0.12500
C444        C  0.09550710  0.68099179  0.41042026     0.01200
C445        C  0.07127309  0.71081440  0.44285788    -0.11000
C446        C  0.04807420  0.69110670  0.48290097     0.03700
C447        C  0.05344187  0.64337326  0.49312493    -0.10400
H448        H  0.10408437  0.60651959  0.38784504     0.09200
H449        H  0.06934642  0.74889960  0.43617759     0.06800
H450        H  0.03773500  0.63122444  0.52680782    -0.03800
C451        C  0.94478010  0.86664111  0.42342196     0.03700
C452        C  0.94103752  0.84366074  0.46792468    -0.12500
C453        C  0.91828060  0.79965477  0.47315206     0.01200
C454        C  0.89399765  0.78115722  0.43223079    -0.11000
C455        C  0.89486764  0.80487627  0.38725999     0.03700
C456        C  0.92058632  0.84821207  0.38315404    -0.10400
H457        H  0.95747206  0.86053805  0.49864856     0.09200
H458        H  0.87449050  0.74810192  0.43473384     0.06800
H459        H  0.92145305  0.86768128  0.34919967     0.06600
C460        C  0.89927869  0.87268643  0.06701447     0.03700
C461        C  0.89111735  0.83781631  0.03135840    -0.12500
C462        C  0.85329329  0.80639140  0.03577562     0.01200
C463        C  0.82872632  0.80459924  0.07939542    -0.11000
C464        C  0.83827703  0.83637170  0.11697684     0.03700
C465        C  0.87389627  0.87080691  0.11101632    -0.10400
H466        H  0.91017724  0.83889381  0.99733309     0.09200
H467        H  0.79952914  0.77988655  0.08297630     0.06800
H468        H  0.88006207  0.89705168  0.13911470     0.06600
C469        C  0.62008634  0.83026919  0.93011533     0.03700
C470        C  0.62059588  0.82399040  0.87820644    -0.12500
C471        C  0.65530501  0.79366838  0.85625066     0.01200
C472        C  0.68662091  0.76952894  0.88624691    -0.11000
C473        C  0.69015450  0.78038435  0.93487959     0.03700
C474        C  0.65616835  0.80896583  0.95726699    -0.10400
H475        H  0.59584773  0.84328119  0.85574914     0.09200
H476        H  0.71399069  0.74743063  0.87028297     0.06800
H477        H  0.66045010  0.81821583  0.99518930     0.06600
Zn478      Zn  0.80477211  0.71163936  0.29318250     1.49700
Zn479      Zn  0.80232943  0.81963572  0.26693055     1.49400
Zn480      Zn  0.76621839  0.74503631  0.19257428     1.49100
Zn481      Zn  0.70448118  0.76734994  0.28387027     1.49500
O482        O  0.76988243  0.76001896  0.26101653    -1.83600
O483        O  0.84823366  0.74481998  0.34511370    -0.74200
O484        O  0.82924693  0.83983810  0.20257881    -0.74000
O485        O  0.81894043  0.70208478  0.16899063    -0.73600
O486        O  0.85449200  0.81766133  0.31389899    -0.74200
O487        O  0.84050891  0.67161110  0.24014558    -0.73800
O488        O  0.77195617  0.80750282  0.15905664    -0.74400
O489        O  0.66068545  0.75265289  0.22679712    -0.73800
O490        O  0.75942781  0.86508107  0.29902010    -0.74600
O491        O  0.70550945  0.70874672  0.17840971    -0.74000
O492        O  0.69164121  0.83133484  0.31934520    -0.74400
O493        O  0.68756269  0.71433342  0.32911766    -0.74300
O494        O  0.75287274  0.67029094  0.32361826    -0.74100
C495        C  0.86511086  0.78746268  0.34629570     0.77700
C496        C  0.81097335  0.82995674  0.16175567     0.78200
C497        C  0.84247080  0.67187401  0.19343416     0.77100
C498        C  0.66553127  0.71797701  0.19683728     0.77500
C499        C  0.71976391  0.86689515  0.32063367     0.78600
C500        C  0.70942802  0.67538974  0.33561269     0.77700
C501        C  0.36559570  0.56409806  0.40179623     0.03700
C502        C  0.33947639  0.52445541  0.38552979    -0.12500
C503        C  0.30309959  0.52986954  0.35191659     0.01200
C504        C  0.28757030  0.57553409  0.34053806    -0.11000
C505        C  0.31089888  0.61576652  0.35739309     0.03700
C506        C  0.35038217  0.61057749  0.38837285    -0.10400
H507        H  0.35087818  0.48851440  0.39404008     0.09200
H508        H  0.25954214  0.58022197  0.31424723     0.06800
H509        H  0.36973173  0.64180248  0.40017549     0.06600
C510        C  0.30768718  0.38665863  0.13235535     0.03700
C511        C  0.35044556  0.40085869  0.10950597    -0.12500
C512        C  0.36357833  0.45022802  0.10924475     0.01200
C513        C  0.33575162  0.48237383  0.13583404    -0.11000
C514        C  0.29772674  0.46550557  0.16315233     0.03700
C515        C  0.27866339  0.42146502  0.15229188    -0.10400
H516        H  0.37372987  0.37416625  0.09442034     0.09200
H517        H  0.34882801  0.51800936  0.14318978     0.06800
H518        H  0.24729450  0.41028489  0.17191176     0.06600
Zn519      Zn  0.47940589  0.52067632  0.94937003     1.49700
Zn520      Zn  0.50104645  0.45134464  0.03655873     1.49400
Zn521      Zn  0.57056069  0.54115174  0.02000823     1.49100
Zn522      Zn  0.46535080  0.55797754  0.05366211     1.49500
O523        O  0.50483415  0.51844116  0.01502939    -1.83600
O524        O  0.44567379  0.45699040  0.93243015    -0.74200
O525        O  0.55909091  0.43098651  0.07867170    -0.74000
O526        O  0.59862512  0.55700645  0.95219452    -0.73600
O527        O  0.49146372  0.41031738  0.97712548    -0.74200
O528        O  0.53488841  0.53785047  0.90869658    -0.73800
O529        O  0.60726940  0.48921024  0.05519774    -0.74400
O530        O  0.50827156  0.59151465  0.10372393    -0.73800
O531        O  0.43975249  0.43976707  0.07299488    -0.74600
O532        O  0.57869011  0.59618577  0.06851667    -0.74000
O533        O  0.41437292  0.51408243  0.08337774    -0.74400
O534        O  0.43185212  0.60714269  0.01008486    -0.74300
O535        O  0.43275245  0.57334109  0.93744283    -0.74100
C536        C  0.45646542  0.41563764  0.94832494     0.77700
C537        C  0.59943945  0.45142456  0.08019449     0.78200
C538        C  0.57790685  0.55145440  0.91140159     0.77100
C539        C  0.55132058  0.60592650  0.10384357     0.77500
C540        C  0.40830485  0.46881149  0.08740466     0.78600
C541        C  0.41960771  0.60669570  0.96535959     0.77700
Zn542      Zn  0.04945352  0.96997733  0.47115192     1.49700
Zn543      Zn  0.01994649  0.07896821  0.48807682     1.49400
Zn544      Zn  0.94035889  0.99424306  0.47443437     1.49100
Zn545      Zn  0.00230768  0.99701860  0.56991748     1.49500
O546        O  0.00310113  0.01120876  0.50072937    -1.83600
O547        O  0.08439557  0.00838403  0.41737625    -0.74200
O548        O  0.95887875  0.11263477  0.46618302    -0.74000
O549        O  0.94663916  0.95036536  0.41745164    -0.73600
O550        O  0.06446526  0.08434770  0.42913434    -0.74200
O551        O  0.01077708  0.91401054  0.44451116    -0.73800
O552        O  0.90715265  0.05436202  0.45076754    -0.74400
O553        O  0.93832861  0.97136070  0.59306285    -0.73800
O554        O  0.05138165  0.11035859  0.54990329    -0.74600
O555        O  0.89964570  0.95645307  0.52468512    -0.74000
O556        O  0.02945202  0.05600810  0.60456929    -0.74400
O557        O  0.04674092  0.94447380  0.58946847    -0.74300
O558        O  0.09409694  0.94466097  0.52538741    -0.74100
C559        C  0.08656049  0.05260799  0.40498103     0.77700
C560        C  0.91864406  0.09847781  0.45041664     0.78200
C561        C  0.97010882  0.91255454  0.42440546     0.77100
C562        C  0.90325590  0.95277374  0.57074647     0.77500
C563        C  0.04976220  0.09574930  0.59400635     0.78600
C564        C  0.08578379  0.93412778  0.56993286     0.77700
C565        C  0.37815363  0.91930946  0.43860714     0.03700
C566        C  0.35840224  0.92254276  0.48447215    -0.12500
C567        C  0.31326618  0.90696617  0.49345894     0.01200
C568        C  0.28866483  0.88032327  0.45904376    -0.11000
C569        C  0.30851444  0.87149970  0.41327928     0.03700
C570        C  0.35326703  0.89325791  0.40192216    -0.10400
H571        H  0.37638298  0.94264749  0.51270267     0.09200
H572        H  0.25340565  0.86783449  0.46740506     0.06800
H573        H  0.36795811  0.89016363  0.36585053     0.06600
C574        C  0.16471190  0.87232427  0.66476570     0.03700
C575        C  0.12759955  0.87771671  0.63049860    -0.12500
C576        C  0.12491024  0.92046903  0.60271928     0.01200
C577        C  0.16054983  0.95450940  0.60732302    -0.11000
C578        C  0.19941640  0.94688565  0.63786030     0.03700
C579        C  0.19514717  0.91099020  0.67264638    -0.10400
H580        H  0.10269007  0.84907807  0.62431491     0.09200
H581        H  0.15941588  0.98526544  0.58356210     0.06800
H582        H  0.22116219  0.90854496  0.70109410     0.06600
C583        C  0.42475701  0.37355619  0.94130249     0.03700
C584        C  0.41877291  0.34502386  0.98240980    -0.12500
C585        C  0.40023012  0.29898500  0.97966099     0.01200
C586        C  0.37662343  0.28606746  0.93645634    -0.11000
C587        C  0.37696953  0.31570341  0.89530048     0.03700
C588        C  0.40230789  0.35975287  0.89756415    -0.10400
H589        H  0.43280581  0.35769299  0.01629066     0.09200
H590        H  0.35948533  0.25175706  0.93357309     0.06800
H591        H  0.40524700  0.38230310  0.86578316     0.06600
C592        C  0.56195650  0.10494585  0.93996975     0.03700
C593        C  0.59471715  0.12773567  0.90826409    -0.12500
C594        C  0.59827669  0.17886399  0.90750559     0.01200
C595        C  0.56655899  0.20538114  0.93636464    -0.11000
C596        C  0.53414884  0.18184035  0.96695838     0.03700
C597        C  0.53595582  0.13285189  0.97157748    -0.10400
H598        H  0.61666550  0.10643429  0.88463171     0.09200
H599        H  0.56574317  0.24394194  0.93344854     0.06800
H600        H  0.51317711  0.11578655  0.99816368     0.06600
C601        C  0.06922477  0.12478686  0.63581271     0.03700
C602        C  0.10754697  0.15840809  0.63388268    -0.12500
C603        C  0.12284559  0.18160880  0.67747696     0.01200
C604        C  0.10068047  0.16936576  0.72098622    -0.11000
C605        C  0.05878539  0.14322532  0.72239233     0.03700
C606        C  0.04620900  0.11795533  0.68050974    -0.10400
H607        H  0.12500247  0.16593597  0.59982474     0.09200
H608        H  0.11426331  0.18452297  0.75417521     0.06800
H609        H  0.01608011  0.09459947  0.68175013     0.06600
C610        C  0.88019643  0.31318011  0.71004646     0.03700
C611        C  0.89731822  0.33706519  0.66810663    -0.12500
C612        C  0.94670449  0.33657170  0.65686734     0.01200
C613        C  0.97654126  0.30833349  0.68614512    -0.11000
C614        C  0.95846817  0.28470049  0.72723438     0.03700
C615        C  0.91244017  0.29243136  0.74152555    -0.10400
H616        H  0.87257738  0.35435283  0.64393887     0.09200
H617        H  0.01262378  0.30193861  0.67513752     0.06800
H618        H  0.89981810  0.27406240  0.77377570     0.06600
C619        C  0.63797043  0.43550284  0.11436578     0.03700
C620        C  0.63987666  0.39112999  0.13970789    -0.12500
C621        C  0.67509242  0.38376409  0.17618103     0.01200
C622        C  0.70793332  0.42020075  0.18448182    -0.11000
C623        C  0.71524929  0.45421711  0.14872529     0.03700
C624        C  0.67621100  0.46691383  0.12042691    -0.10400
H625        H  0.61553978  0.36314477  0.13024224     0.09200
H626        H  0.73559307  0.41499756  0.21081642     0.06800
H627        H  0.67868575  0.49829728  0.09770674     0.06600
C628        C  0.87327046  0.43777417  0.92312198     0.03700
C629        C  0.85828027  0.43884678  0.97098305    -0.12500
C630        C  0.81503880  0.42109870  0.98449375     0.01200
C631        C  0.78767186  0.39501266  0.95151659    -0.11000
C632        C  0.80260653  0.38930437  0.90305610     0.03700
C633        C  0.84553158  0.41254843  0.88821972    -0.10400
H634        H  0.87908955  0.45759856  0.99810349     0.09200
H635        H  0.75448212  0.37980010  0.96341135     0.06800
H636        H  0.85715858  0.41055247  0.85090392     0.06600
Zn637      Zn  0.73039471  0.25409804  0.86200618     1.49700
Zn638      Zn  0.66078772  0.23724454  0.77183498     1.49400
Zn639      Zn  0.73955034  0.32781688  0.76739167     1.49100
Zn640      Zn  0.76611345  0.21996833  0.75792678     1.49500
O641        O  0.72384857  0.26124613  0.79068817    -1.83600
O642        O  0.66756908  0.22776065  0.89340436    -0.74200
O643        O  0.62943894  0.29381513  0.74150749    -0.74000
O644        O  0.76593639  0.36701094  0.82652823    -0.73600
O645        O  0.62568924  0.20476659  0.82911555    -0.74200
O646        O  0.76052054  0.31623593  0.88899656    -0.73800
O647        O  0.68104464  0.35295663  0.72828286    -0.74400
O648        O  0.82208213  0.25815062  0.73519766    -0.73800
O649        O  0.65678310  0.19327409  0.71272985    -0.74600
O650        O  0.79806249  0.33235141  0.72280851    -0.74000
O651        O  0.73335348  0.19298289  0.69812204    -0.74400
O652        O  0.78788713  0.17021723  0.80567880    -0.74300
O653        O  0.77591409  0.20045125  0.87932900    -0.74100
C654        C  0.63240408  0.20506531  0.87499946     0.77700
C655        C  0.64025318  0.33388302  0.72204396     0.78200
C656        C  0.77457179  0.35613705  0.87093360     0.77100
C657        C  0.83023713  0.30085129  0.72114263     0.77500
C658        C  0.69089067  0.18586161  0.68408107     0.78600
C659        C  0.79122668  0.16755748  0.85187945     0.77700
C660        C  0.11238711  0.83364175  0.83912538     0.03700
C661        C  0.09110370  0.84654135  0.79555257    -0.12500
C662        C  0.05672968  0.88221962  0.79260008     0.01200
C663        C  0.05078235  0.91153463  0.83315486    -0.11000
C664        C  0.07223958  0.90084835  0.87780952     0.03700
C665        C  0.10387355  0.86167206  0.88092526    -0.10400
H666        H  0.09883845  0.82512273  0.76424675     0.09200
H667        H  0.02627882  0.94091549  0.83129283     0.06800
H668        H  0.11979192  0.85212920  0.91526904     0.06600
C669        C  0.94896322  0.67504207  0.83399503     0.03700
C670        C  0.97414153  0.71488801  0.81609436    -0.12500
C671        C  0.95183691  0.74759727  0.78482032     0.01200
C672        C  0.90574645  0.74037934  0.77057117    -0.11000
C673        C  0.87930378  0.70231480  0.78795533     0.03700
C674        C  0.90098392  0.66887823  0.81919080    -0.10400
H675        H  0.00993936  0.72160414  0.82792980     0.09200
H676        H  0.88991261  0.76602918  0.74590474     0.06800
H677        H  0.88038322  0.63912513  0.83269049     0.06600
C678        C  0.80538318  0.12117303  0.87238702     0.03700
C679        C  0.77932096  0.08295390  0.85470252    -0.12500
C680        C  0.80119785  0.03931306  0.84790033     0.01200
C681        C  0.84224807  0.02904297  0.87398548    -0.11000
C682        C  0.86474707  0.06464383  0.90149427     0.03700
C683        C  0.84767930  0.11224881  0.89800403    -0.10400
H684        H  0.74669563  0.08999298  0.83536057     0.09200
H685        H  0.85920858  0.99478643  0.86918447     0.06800
H686        H  0.86762094  0.14163775  0.91309981     0.06600
C687        C  0.80612634  0.87183198  0.62844062     0.03700
C688        C  0.84548987  0.88469059  0.59840081    -0.12500
C689        C  0.86339760  0.93281762  0.60017821     0.01200
C690        C  0.84523361  0.96361827  0.63545877    -0.11000
C691        C  0.80620327  0.95039046  0.66303075     0.03700
C692        C  0.78320169  0.90812883  0.65342981    -0.10400
H693        H  0.86304358  0.85799700  0.57660133     0.09200
H694        H  0.86255985  0.99739754  0.64264882     0.06800
H695        H  0.75146226  0.90036597  0.67403240     0.06600
Zn696      Zn  0.74997198  0.65707963  0.71600566     1.49700
Zn697      Zn  0.75176609  0.76924405  0.73524078     1.49400
Zn698      Zn  0.73401688  0.73660473  0.62841377     1.49100
Zn699      Zn  0.65510839  0.72074431  0.71616978     1.49500
O700        O  0.72283145  0.71958201  0.69859469    -1.83600
O701        O  0.81019370  0.66306300  0.75682359    -0.74200
O702        O  0.77538166  0.81962092  0.68833335    -0.74000
O703        O  0.75313464  0.67362837  0.59163186    -0.73600
O704        O  0.80959106  0.74181492  0.76572790    -0.74200
O705        O  0.77098364  0.62446806  0.65316370    -0.73800
O706        O  0.78632804  0.78763998  0.61580366    -0.74400
O707        O  0.62084915  0.75238033  0.65942758    -0.73800
O708        O  0.70888227  0.79491700  0.78995019    -0.74600
O709        O  0.67647501  0.77899166  0.60876466    -0.74000
O710        O  0.63971615  0.76035235  0.77760063    -0.74400
O711        O  0.63218117  0.65439430  0.73954264    -0.74300
O712        O  0.70048491  0.61742471  0.75361380    -0.74100
C713        C  0.82965333  0.70145638  0.77126329     0.77700
C714        C  0.79000828  0.82310324  0.64442347     0.78200
C715        C  0.77008914  0.63395177  0.60776068     0.77100
C716        C  0.63611933  0.78352761  0.62892937     0.77500
C717        C  0.66655370  0.78616504  0.80363369     0.78600
C718        C  0.65568864  0.62007808  0.75846273     0.77700
Zn719      Zn  0.02061642  0.48295830  0.92747826     1.49700
Zn720      Zn  0.03133667  0.54435658  0.02577552     1.49400
Zn721      Zn  0.05771152  0.59330781  0.92178943     1.49100
Zn722      Zn  0.94996299  0.56890988  0.94811383     1.49500
O723        O  0.01585488  0.54784081  0.95558204    -1.83600
O724        O  0.04883611  0.43934829  0.97789964    -0.74200
O725        O  0.08114523  0.59148351  0.04475210    -0.74000
O726        O  0.10156890  0.55223449  0.87665507    -0.73600
O727        O  0.05382971  0.47667248  0.04860466    -0.74200
O728        O  0.06816587  0.48007717  0.87406730    -0.73800
O729        O  0.09842970  0.62961020  0.97608838    -0.74400
O730        O  0.94247698  0.61579848  0.89481228    -0.73800
O731        O  0.97340787  0.56706890  0.06263759    -0.74600
O732        O  0.01544182  0.63938843  0.87769329    -0.74000
O733        O  0.92152201  0.59739216  0.01054214    -0.74400
O734        O  0.90971830  0.51242587  0.92974395    -0.74300
O735        O  0.95595087  0.45215061  0.90847978    -0.74100
C736        C  0.05882857  0.43901213  0.02300424     0.77700
C737        C  0.10377586  0.62384829  0.02230449     0.78200
C738        C  0.10049967  0.50892894  0.86112579     0.77100
C739        C  0.97057673  0.64175876  0.87052418     0.77500
C740        C  0.93462423  0.58878097  0.05386617     0.78600
C741        C  0.91488639  0.46939463  0.91559866     0.77700
C742        C  0.37381102  0.14153213  0.67988313     0.03700
C743        C  0.38714705  0.10555167  0.71235530    -0.12500
C744        C  0.40896865  0.06459772  0.69574779     0.01200
C745        C  0.41779517  0.05847174  0.64708196    -0.11000
C746        C  0.41147274  0.09531896  0.61407887     0.03700
C747        C  0.38764767  0.13739073  0.62985174    -0.10400
H748        H  0.37788271  0.10750267  0.75044198     0.09200
H749        H  0.43221419  0.02458929  0.63497159     0.06800
H750        H  0.38064031  0.16603424  0.60450272     0.06600
C751        C  0.37113508  0.82944874  0.82195783     0.03700
C752        C  0.39454483  0.85254503  0.78372758    -0.12500
C753        C  0.42667043  0.88856795  0.79340050     0.01200
C754        C  0.44496212  0.89367416  0.83930972    -0.11000
C755        C  0.42205366  0.87323699  0.87878685     0.03700
C756        C  0.38536432  0.83966202  0.87046548    -0.10400
H757        H  0.38178273  0.84957080  0.74679327     0.09200
H758        H  0.47159263  0.92096465  0.84509431     0.06800
H759        H  0.36690153  0.82395441  0.90070220     0.06600
C760        C  0.16410275  0.68820486  0.12993052     0.03700
C761        C  0.19095133  0.72081186  0.10390125    -0.12500
C762        C  0.19977860  0.71388180  0.05531898     0.01200
C763        C  0.17134366  0.68262219  0.02824922    -0.11000
C764        C  0.13611263  0.65534345  0.05166325     0.03700
C765        C  0.13451055  0.65631254  0.10384467    -0.10400
H766        H  0.21250645  0.74673778  0.12314783     0.09200
H767        H  0.17813768  0.67793184  0.98989555     0.06800
H768        H  0.11147597  0.63235659  0.12359091     0.06600
C769        C  0.32014289  0.67104394  0.89900521     0.03700
C770        C  0.32008192  0.71349701  0.92553407    -0.12500
C771        C  0.35210614  0.72217927  0.96310871     0.01200
C772        C  0.38893132  0.68943533  0.97000708    -0.11000
C773        C  0.38878671  0.64521285  0.94613675     0.03700
C774        C  0.35519501  0.63668449  0.90891861    -0.10400
H775        H  0.29160062  0.73827328  0.91957260     0.09200
H776        H  0.41409033  0.69564531  0.99888183     0.06800
H777        H  0.35456756  0.60280323  0.89009582     0.06600
Zn778      Zn  0.16342423  0.73703462  0.74630530     1.49700
Zn779      Zn  0.25455584  0.66534349  0.75809880     1.49400
Zn780      Zn  0.26537662  0.76981477  0.72334433     1.49100
Zn781      Zn  0.23902245  0.74952889  0.83162010     1.49500
O782        O  0.22980410  0.73018785  0.76416918    -1.83600
O783        O  0.14572842  0.67585189  0.70845006    -0.74200
O784        O  0.30700456  0.66245415  0.70747595    -0.74000
O785        O  0.22356816  0.82083081  0.69560800    -0.73600
O786        O  0.20059556  0.62423153  0.73453626    -0.74200
O787        O  0.15023422  0.79446087  0.70066899    -0.73800
O788        O  0.29753959  0.73218976  0.67049121    -0.74400
O789        O  0.30099261  0.78498024  0.84138857    -0.73800
O790        O  0.29080604  0.64796820  0.82071594    -0.74600
O791        O  0.31679649  0.79904609  0.76407855    -0.74000
O792        O  0.24381796  0.68866622  0.86881560    -0.74400
O793        O  0.18572726  0.79387977  0.85062832    -0.74300
O794        O  0.12962221  0.75580670  0.80945130    -0.74100
C795        C  0.16600975  0.63506979  0.70672070     0.77700
C796        C  0.31949160  0.69278650  0.67558018     0.78200
C797        C  0.17958750  0.82642180  0.68775819     0.77100
C798        C  0.32766067  0.80249908  0.80891099     0.77500
C799        C  0.28211056  0.66587279  0.86215565     0.78600
C800        C  0.14328647  0.79094954  0.83602444     0.77700
C801        C  0.25252902  0.77096225  0.01200841    -0.25800
C802        C  0.24669257  0.72925759  0.03944763    -0.13900
C803        C  0.28723423  0.70696886  0.05940981     0.36800
C804        C  0.33162649  0.72387966  0.04683066    -0.25200
C805        C  0.33553663  0.75173526  0.00482593    -0.14500
C806        C  0.29799673  0.78392284  0.99649818     0.37900
N807        N  0.30481041  0.82520911  0.96677736    -0.88700
H808        H  0.22230270  0.79220491  0.00159906     0.19000
H809        H  0.36178239  0.70448878  0.06060660     0.19000
N810        N  0.28464336  0.66524099  0.08946572    -0.87800
H811        H  0.29474817  0.85504655  0.98696544     0.36300
H812        H  0.28215666  0.82288490  0.93697184     0.41400
H813        H  0.26460078  0.63931636  0.07161044     0.41100
H814        H  0.26846244  0.67383237  0.12215945     0.35900
C815        C  0.37596349  0.00215226  0.74609041    -0.25800
C816        C  0.41612610  0.02386474  0.72713508    -0.13900
C817        C  0.46063180  0.00173810  0.73104256     0.36800
C818        C  0.46340004  0.95614261  0.75057089    -0.25200
C819        C  0.42257340  0.93293797  0.76645433    -0.14500
C820        C  0.37894894  0.95723190  0.76677243     0.37900
N821        N  0.33815816  0.93719077  0.78990557    -0.88700
H822        H  0.34193258  0.01955498  0.74362801     0.19000
H823        H  0.49747497  0.93922237  0.75448923     0.19000
N824        N  0.50332162  0.02525267  0.71667020    -0.87800
H825        H  0.31098176  0.93519599  0.76444528     0.36300
H826        H  0.32749058  0.96044188  0.81742430     0.41400
H827        H  0.50534194  0.05787108  0.73492092     0.41100
H828        H  0.50257371  0.03196614  0.67946035     0.35900
C829        C  0.78880919  0.04275976  0.75932540    -0.25800
C830        C  0.79200247  0.01456805  0.80176740    -0.13900
C831        C  0.79394479  0.96464457  0.79796106     0.36800
C832        C  0.79699046  0.94433052  0.75184386    -0.25200
C833        C  0.79671117  0.97306212  0.70977085    -0.14500
C834        C  0.79077382  0.02230443  0.71353199     0.37900
N835        N  0.78788441  0.05164795  0.67102067    -0.88700
H836        H  0.78772981  0.08132350  0.76129235     0.19000
H837        H  0.80146280  0.90604414  0.74877824     0.19000
N838        N  0.79439892  0.93515768  0.84069421    -0.87800
H839        H  0.81512446  0.07678341  0.67241160     0.36300
H840        H  0.75590298  0.07008531  0.67206544     0.41400
H841        H  0.79631556  0.89905683  0.83132511     0.41100
H842        H  0.76220894  0.93989368  0.85845146     0.35900
C843        C  0.02542541  0.84114367  0.72091987    -0.25800
C844        C  0.01874011  0.87836125  0.75460690    -0.13900
C845        C  0.97286458  0.87947642  0.77424557     0.36800
C846        C  0.95217046  0.83579867  0.78651968    -0.25200
C847        C  0.97294959  0.79314355  0.77013275    -0.14500
C848        C  0.00701657  0.79594342  0.73316380     0.37900
N849        N  0.02376266  0.75365252  0.70982179    -0.88700
H850        H  0.05460588  0.84294577  0.69579637     0.19000
H851        H  0.92021922  0.83509359  0.80804429     0.19000
N852        N  0.94879817  0.92331071  0.78445382    -0.87800
H853        H  0.06009193  0.75141961  0.71563005     0.36300
H854        H  0.01814459  0.75730362  0.67257265     0.41400
H855        H  0.96912813  0.95231380  0.77281769     0.41100
H856        H  0.94443821  0.92600935  0.82199557     0.35900
C857        C  0.76897781  0.49257096  0.09002106    -0.25800
C858        C  0.76216735  0.45601895  0.12422221    -0.13900
C859        C  0.78706893  0.41256669  0.11695634     0.36800
C860        C  0.80363546  0.40140837  0.07067481    -0.25200
C861        C  0.79857007  0.43409212  0.03294553    -0.14500
C862        C  0.78480809  0.48144332  0.04354357     0.37900
N863        N  0.78384381  0.51800234  0.00715052    -0.88700
H864        H  0.75434599  0.52769952  0.09645212     0.19000
H865        H  0.81956112  0.36690114  0.06399065     0.19000
N866        N  0.79346886  0.37863325  0.15529979    -0.87800
H867        H  0.76289935  0.50624118  0.97835145     0.36300
H868        H  0.81807632  0.52362227  0.99445095     0.41400
H869        H  0.82964095  0.37319904  0.15985582     0.41100
H870        H  0.77841621  0.34622250  0.14461131     0.35900
C871        C  0.03439935  0.19312549  0.79146301    -0.25800
C872        C  0.02311214  0.15376396  0.76155822    -0.13900
C873        C  0.97580740  0.15340088  0.74586968     0.36800
C874        C  0.95570276  0.19703261  0.73309961    -0.25200
C875        C  0.97904479  0.23991257  0.74496395    -0.14500
C876        C  0.01623631  0.23812129  0.77850009     0.37900
N877        N  0.03570451  0.28097978  0.79833366    -0.88700
H878        H  0.06463819  0.19152016  0.81536422     0.19000
H879        H  0.92221945  0.19752810  0.71417553     0.19000
N880        N  0.94915929  0.11011311  0.74067166    -0.87800
H881        H  0.07156440  0.28192792  0.78966170     0.36300
H882        H  0.03274198  0.27905801  0.83607238     0.41400
H883        H  0.96976171  0.08082725  0.75070814     0.41100
H884        H  0.93977098  0.10618858  0.70420709     0.35900
C885        C  0.40896065  0.21447807  0.00151253    -0.25800
C886        C  0.41704579  0.26183573  0.01525618    -0.13900
C887        C  0.46123162  0.27000679  0.03772265     0.36800
C888        C  0.50048809  0.24440030  0.02123524    -0.25200
C889        C  0.49357690  0.20591389  0.98979452    -0.14500
C890        C  0.44694831  0.18823361  0.98340880     0.37900
N891        N  0.43773391  0.14574743  0.95611300    -0.88700
H892        H  0.37350492  0.20229298  0.99381692     0.19000
H893        H  0.53562622  0.25417168  0.03297419     0.19000
N894        N  0.46619119  0.30441975  0.07571285    -0.87800
H895        H  0.41579645  0.15458974  0.92702651     0.36300
H896        H  0.41952863  0.12190977  0.97857877     0.41400
H897        H  0.49265148  0.32856692  0.06583264     0.41100
H898        H  0.47778606  0.28637194  0.10669912     0.35900
C899        C  0.24908823  0.98912792  0.57809543    -0.25800
C900        C  0.24757640  0.96028879  0.61991166    -0.13900
C901        C  0.28354090  0.92538240  0.62385928     0.36800
C902        C  0.30288710  0.90636277  0.58163187    -0.25200
C903        C  0.29094797  0.92593246  0.53678765    -0.14500
C904        C  0.26752902  0.97033716  0.53527883     0.37900
N905        N  0.26135615  0.99627733  0.49090069    -0.88700
H906        H  0.22832325  0.02146715  0.57610099     0.19000
H907        H  0.32743091  0.87683456  0.58385661     0.19000
N908        N  0.29968983  0.90860977  0.66997988    -0.87800
H909        H  0.24308517  0.97455965  0.46647876     0.36300
H910        H  0.29457928  0.00375431  0.47636940     0.41400
H911        H  0.33564693  0.91626380  0.67253379     0.41100
H912        H  0.29610744  0.87146329  0.67081487     0.35900
C913        C  0.33562897  0.47496734  0.29307009    -0.25800
C914        C  0.29481665  0.49284817  0.31497133    -0.13900
C915        C  0.25197919  0.49189331  0.28865895     0.36800
C916        C  0.25350235  0.48528037  0.23840032    -0.25200
C917        C  0.29655920  0.47646396  0.21514199    -0.14500
C918        C  0.33703610  0.46730132  0.24347656     0.37900
N919        N  0.37996609  0.45061261  0.22199828    -0.88700
H920        H  0.36854287  0.47276347  0.31282805     0.19000
H921        H  0.22126312  0.48736988  0.21745270     0.19000
N922        N  0.20751264  0.50164397  0.31145182    -0.87800
H923        H  0.40665749  0.47526414  0.22965701     0.36300
H924        H  0.38888267  0.41812243  0.23823421     0.41400
H925        H  0.21190629  0.50483301  0.34895127     0.41100
H926        H  0.18601635  0.47174244  0.30624815     0.35900
C927        C  0.76653073  0.81863729  0.94083655    -0.25800
C928        C  0.73803187  0.77992341  0.95375716    -0.13900
C929        C  0.75723456  0.74116903  0.97898264     0.36800
C930        C  0.80312778  0.74511114  0.99736303    -0.25200
C931        C  0.82806355  0.78851533  0.99275081    -0.14500
C932        C  0.81172241  0.82301574  0.95943845     0.37900
N933        N  0.83850316  0.86510251  0.94852456    -0.88700
H934        H  0.75270344  0.84682151  0.91787826     0.19000
H935        H  0.81614496  0.71754992  0.02151199     0.19000
N936        N  0.72959006  0.69931515  0.98802090    -0.87800
H937        H  0.81890546  0.89492540  0.95899110     0.36300
H938        H  0.84335912  0.86670243  0.91097157     0.41400
H939        H  0.72725389  0.69452280  0.02555448     0.41100
H940        H  0.74760444  0.67007106  0.97362141     0.35900
C941        C  0.92165215  0.72095725  0.51057630    -0.25800
C942        C  0.92834450  0.76988241  0.51754351    -0.13900
C943        C  0.96995719  0.78130304  0.54349172     0.36800
C944        C  0.01101200  0.75564835  0.53252616    -0.25200
C945        C  0.00675464  0.71423969  0.50456983    -0.14500
C946        C  0.96118262  0.69419072  0.49763289     0.37900
N947        N  0.95483837  0.64900809  0.47418989    -0.88700
H948        H  0.88698433  0.70706262  0.50216911     0.19000
H949        H  0.04516674  0.76802525  0.54478855     0.19000
N950        N  0.97104768  0.82038293  0.57690659    -0.87800
H951        H  0.93468238  0.65439154  0.44291653     0.36300
H952        H  0.93575241  0.62680066  0.49754763     0.41400
H953        H  0.99837661  0.84349516  0.56694350     0.41100
H954        H  0.97963493  0.80663124  0.61099952     0.35900
C955        C  0.72859437  0.96756355  0.18002653    -0.25800
C956        C  0.75082957  0.00955069  0.16480430    -0.13900
C957        C  0.78260480  0.02812223  0.19939995     0.36800
C958        C  0.77085012  0.02420949  0.24893412    -0.25200
C959        C  0.73000216  0.99883523  0.26194604    -0.14500
C960        C  0.70885492  0.96893774  0.22622214     0.37900
N961        N  0.66522446  0.94414720  0.23352044    -0.88700
H962        H  0.71206822  0.94445434  0.15353564     0.19000
H963        H  0.79216887  0.04167115  0.27626245     0.19000
N964        N  0.82200650  0.05596518  0.18425053    -0.87800
H965        H  0.63976371  0.96854787  0.24530371     0.36300
H966        H  0.66916740  0.91740935  0.25901433     0.41400
H967        H  0.85232535  0.03989294  0.19824575     0.41100
H968        H  0.81892387  0.08936760  0.20059686     0.35900
C969        C  0.93945584  0.43728485  0.21425796    -0.25800
C970        C  0.90508492  0.42115230  0.24620704    -0.13900
C971        C  0.86080949  0.44361276  0.24892811     0.36800
C972        C  0.85163325  0.48301583  0.21973715    -0.25200
C973        C  0.88680582  0.50094262  0.18932861    -0.14500
C974        C  0.93093232  0.47752700  0.18597618     0.37900
N975        N  0.96805078  0.49603453  0.15607712    -0.88700
H976        H  0.97365767  0.42015767  0.21315116     0.19000
H977        H  0.81783366  0.50080387  0.22231582     0.19000
N978        N  0.82637491  0.42795872  0.28353095    -0.87800
H979        H  0.97787337  0.46942409  0.13152493     0.36300
H980        H  0.99704806  0.50349807  0.17817327     0.41400
H981        H  0.81834343  0.45661527  0.30628936     0.41100
H982        H  0.79583600  0.41845925  0.26483284     0.35900
C983        C  0.22284661  0.47669724  0.64888573    -0.25800
C984        C  0.24303771  0.51963910  0.63314908    -0.13900
C985        C  0.27454859  0.53920733  0.66764526     0.36800
C986        C  0.26177865  0.53729318  0.71698067    -0.25200
C987        C  0.22256739  0.50959211  0.73052195    -0.14500
C988        C  0.20490223  0.47628781  0.69615287     0.37900
N989        N  0.16859296  0.44296183  0.70878275    -0.88700
H990        H  0.20778562  0.45222540  0.62273183     0.19000
H991        H  0.28207069  0.55646721  0.74394659     0.19000
N992        N  0.31556997  0.56478356  0.65277436    -0.87800
H993        H  0.18108374  0.40859185  0.70177266     0.36300
H994        H  0.13973703  0.44910574  0.68604973     0.41400
H995        H  0.34468285  0.54766766  0.66819965     0.41100
H996        H  0.31919510  0.56118328  0.61521958     0.35900
C997        C  0.26756029  0.04382010  0.88233938    -0.25800
C998        C  0.22365801  0.02065073  0.87961060    -0.13900
C999        C  0.21356013  0.98979167  0.91912827     0.36800
C1000       C  0.22991405  0.00264604  0.96536795    -0.25200
C1001       C  0.26167655  0.04081244  0.96997958    -0.14500
C1002       C  0.28384599  0.05851201  0.92760770     0.37900
N1003       N  0.32206011  0.09196824  0.92955437    -0.88700
H1004       H  0.28324006  0.05984153  0.85044393     0.19000
H1005       H  0.21832213  0.98300015  0.99709866     0.19000
N1006       N  0.18297086  0.94934158  0.91383218    -0.87800
H1007       H  0.35024825  0.07620727  0.94784851     0.36300
H1008       H  0.31107763  0.12195612  0.94899390     0.41400
H1009       H  0.20218839  0.91901236  0.92359129     0.41100
H1010       H  0.17410332  0.94518204  0.87726590     0.35900
C1011       C  0.52277744  0.48180574  0.74323634    -0.25800
C1012       C  0.56125717  0.46709588  0.77172848    -0.13900
C1013       C  0.56024503  0.41999863  0.79101518     0.36800
C1014       C  0.52391779  0.38890111  0.77726639    -0.25200
C1015       C  0.50024406  0.39894799  0.73369269    -0.14500
C1016       C  0.48984121  0.44786288  0.72703186     0.37900
N1017       N  0.44931842  0.46219872  0.69981256    -0.88700
H1018       H  0.51797600  0.51915015  0.73426467     0.19000
H1019       H  0.52498803  0.35258834  0.79076866     0.19000
N1020       N  0.59655153  0.40311979  0.82286595    -0.87800
H1021       H  0.46052717  0.48389830  0.67119158     0.36300
H1022       H  0.42846126  0.48333862  0.72242020     0.41400
H1023       H  0.61245447  0.37344565  0.80701270     0.41100
H1024       H  0.58063536  0.39164750  0.85504394     0.35900
C1025       C  0.47511027  0.34777910  0.28986808    -0.25800
C1026       C  0.51752137  0.35294148  0.26436122    -0.13900
C1027       C  0.52574118  0.31974224  0.22682644     0.36800
C1028       C  0.50702002  0.27364312  0.23136285    -0.25200
C1029       C  0.47684309  0.26378291  0.27005178    -0.14500
C1030       C  0.45726296  0.30190700  0.29659526     0.37900
N1031       N  0.42081391  0.29364312  0.33163056    -0.88700
H1032       H  0.46289747  0.37560755  0.31398458     0.19000
H1033       H  0.51751506  0.24566018  0.20655214     0.19000
N1034       N  0.55948185  0.32992153  0.18997667    -0.87800
H1035       H  0.39173578  0.31449227  0.32207172     0.36300
H1036       H  0.43295664  0.30524593  0.36541719     0.41400
H1037       H  0.58601607  0.30411992  0.19166779     0.41100
H1038       H  0.54254234  0.32607132  0.15657003     0.35900
C1039       C  0.27608706  0.25738052  0.47965354    -0.25800
C1040       C  0.25756143  0.30222878  0.46753946    -0.13900
C1041       C  0.28717977  0.34254412  0.46662645     0.36800
C1042       C  0.33338785  0.33819802  0.48153619    -0.25200
C1043       C  0.34993714  0.29525462  0.50189191    -0.14500
C1044       C  0.32228567  0.25365548  0.49726924     0.37900
N1045       N  0.34016323  0.20853080  0.51327312    -0.88700
H1046       H  0.25439605  0.22567463  0.47645299     0.19000
H1047       H  0.35406625  0.37068198  0.48314754     0.19000
N1048       N  0.27094981  0.38870226  0.45148609    -0.87800
H1049       H  0.33930802  0.18510076  0.48382073     0.36300
H1050       H  0.31740379  0.19509641  0.53982520     0.41400
H1051       H  0.24315367  0.39902736  0.47401220     0.41100
H1052       H  0.25870581  0.38650327  0.41585017     0.35900
C1053       C  0.49035584  0.77909240  0.71350306    -0.25800
C1054       C  0.46613107  0.77606778  0.66931820    -0.13900
C1055       C  0.45488938  0.81814543  0.64395559     0.36800
C1056       C  0.47484746  0.86118051  0.65906294    -0.25200
C1057       C  0.51113287  0.86064170  0.69391877    -0.14500
C1058       C  0.51109195  0.82230623  0.72742534     0.37900
N1059       N  0.53740890  0.82452791  0.77179164    -0.88700
H1060       H  0.49368309  0.74793720  0.73658613     0.19000
H1061       H  0.46882706  0.89261298  0.63706087     0.19000
N1062       N  0.42412265  0.81662032  0.60251195    -0.87800
H1063       H  0.55083279  0.85900023  0.77646233     0.36300
H1064       H  0.51374352  0.81880179  0.80026529     0.41400
H1065       H  0.44090540  0.79657991  0.57563784     0.41100
H1066       H  0.41922349  0.85081759  0.58816659     0.35900
C1067       C  0.22537441  0.03550534  0.22853204    -0.25800
C1068       C  0.20406552  0.01491506  0.27019872    -0.13900
C1069       C  0.21847535  0.96854133  0.28227596     0.36800
C1070       C  0.23804999  0.94040149  0.24543114    -0.25200
C1071       C  0.23542698  0.95668974  0.19687044    -0.14500
C1072       C  0.24173951  0.00597716  0.19135212     0.37900
N1073       N  0.25821726  0.02621334  0.14671303    -0.88700
H1074       H  0.22367013  0.07338724  0.22173294     0.19000
H1075       H  0.24536854  0.90372463  0.25348437     0.19000
N1076       N  0.21325567  0.95006657  0.33033170    -0.87800
H1077       H  0.23108321  0.04669279  0.13187866     0.36300
H1078       H  0.26589354  0.99904297  0.12197727     0.41400
H1079       H  0.24665986  0.94110930  0.34334675     0.41100
H1080       H  0.19263453  0.91924068  0.32915648     0.35900
C1081       C  0.50390050  0.75222803  0.27882793    -0.25800
C1082       C  0.46752771  0.74736974  0.24501731    -0.13900
C1083       C  0.44904100  0.70125042  0.23586967     0.36800
C1084       C  0.47274951  0.66138966  0.25413289    -0.25200
C1085       C  0.51934195  0.66768237  0.26976043    -0.14500
C1086       C  0.52740761  0.71108689  0.29480208     0.37900
N1087       N  0.56059427  0.71358477  0.33383017    -0.88700
H1088       H  0.51360566  0.78705104  0.29265971     0.19000
H1089       H  0.45968225  0.62619577  0.24509261     0.19000
N1090       N  0.40789387  0.69483261  0.20642404    -0.87800
H1091       H  0.54227644  0.72415852  0.36487436     0.36300
H1092       H  0.58503372  0.74050739  0.32601800     0.41400
H1093       H  0.41706166  0.67365609  0.17670599     0.41100
H1094       H  0.38282171  0.67625235  0.22686930     0.35900
C1095       C  0.72708932  0.49379209  0.45143903    -0.25800
C1096       C  0.75744923  0.53315452  0.45668171    -0.13900
C1097       C  0.78059674  0.55070310  0.41498942     0.36800
C1098       C  0.76618780  0.53450138  0.36931960    -0.25200
C1099       C  0.72179167  0.51228697  0.36619830    -0.14500
C1100       C  0.71260357  0.48029733  0.40473198     0.37900
N1101       N  0.68266996  0.43967056  0.39835621    -0.88700
H1102       H  0.71550721  0.47365699  0.48284644     0.19000
H1103       H  0.78245691  0.54995622  0.33742070     0.19000
N1104       N  0.81833596  0.58448878  0.41912583    -0.87800
H1105       H  0.67405059  0.43632665  0.36163339     0.36300
H1106       H  0.70239727  0.40949494  0.40746574     0.41400
H1107       H  0.80904616  0.61503561  0.39952835     0.41100
H1108       H  0.84823833  0.56972843  0.40294027     0.35900
C1109       C  0.84215477  0.23243091  0.52813193    -0.25800
C1110       C  0.83724238  0.25087680  0.48122489    -0.13900
C1111       C  0.79526776  0.27743726  0.47426797     0.36800
C1112       C  0.75378774  0.26054030  0.49606001    -0.25200
C1113       C  0.75695805  0.22376115  0.53043002    -0.14500
C1114       C  0.80214146  0.21193427  0.54916662     0.37900
N1115       N  0.80758867  0.17758267  0.58736649    -0.88700
H1116       H  0.87634327  0.22127980  0.54131783     0.19000
H1117       H  0.71996272  0.27566314  0.48637890     0.19000
N1118       N  0.79310245  0.31677163  0.44126881    -0.87800
H1119       H  0.82562864  0.19395277  0.61592236     0.36300
H1120       H  0.82846734  0.14964464  0.57440884     0.41400
H1121       H  0.80377555  0.30520773  0.40713758     0.41100
H1122       H  0.81710355  0.34258436  0.45309849     0.35900
C1123       C  0.89201814  0.28312948  0.06734579    -0.25800
C1124       C  0.88561389  0.25223034  0.02758075    -0.13900
C1125       C  0.91834394  0.25497786  0.98920525     0.36800
C1126       C  0.96281773  0.27500133  0.99803062    -0.25200
C1127       C  0.97298389  0.29474811  0.04357821    -0.14500
C1128       C  0.93615205  0.30304118  0.07636541     0.37900
N1129       N  0.94390932  0.33069815  0.11932623    -0.88700
H1130       H  0.86578990  0.28567227  0.09574684     0.19000
H1131       H  0.98958000  0.27417766  0.97001202     0.19000
N1132       N  0.90800496  0.23326116  0.94343446    -0.87800
H1133       H  0.93571803  0.30945483  0.14936659     0.36300
H1134       H  0.92053033  0.35951960  0.11881969     0.41400
H1135       H  0.91033053  0.25975327  0.91676972     0.41100
H1136       H  0.93400866  0.20792985  0.93603168     0.35900
loop_ 
_geom_bond_atom_site_label_1 
_geom_bond_atom_site_label_2 
_geom_bond_distance 
_geom_bond_site_symmetry_2 
_ccdc_geom_bond_type 
Zn1           O5   1.936   1_565  S
Zn1           O6   2.014       .  S
Zn1          O10   2.034   1_564  S
Zn1          O17   2.066   1_554  S
Zn2           O5   1.992   1_655  S
Zn2           O7   2.096       .  S
Zn2           O9   2.103   1_645  S
Zn2          O13   2.022   1_545  S
Zn3           O5   1.966   1_656  S
Zn3           O8   2.068   1_655  S
Zn3          O11   2.010   1_556  S
Zn3          O14   2.035       .  S
Zn4           O5   1.908   1_666  S
Zn4          O12   2.025   1_565  S
Zn4          O15   1.979   1_556  S
Zn4          O16   2.005   1_655  S
O6           C18   1.277       .  A
O7           C19   1.282       .  A
O8           C20   1.276       .  A
O9           C18   1.285       .  A
O10          C20   1.281       .  A
O11          C19   1.281       .  A
O12          C21   1.277       .  A
O13          C22   1.272       .  A
O14          C21   1.271       .  A
O15          C22   1.272       .  A
O16          C23   1.275       .  A
O17          C23   1.274       .  A
C18         C151   1.493       .  S
C19          C33   1.500       .  S
C20         C337   1.490       .  S
C21         C682   1.490       .  S
C22         C460   1.474       .  S
C23         C664   1.486       .  S
C24         C736   1.492       .  S
C24          C25   1.386       .  A
C24          C29   1.433       .  A
C25          C26   1.374       .  A
C25          H30   1.089   1_455  S
C26        C1127   1.459   1_455  S
C26          C27   1.402       .  A
C27          C28   1.410       .  A
C27          H31   1.084       .  S
C28         C204   1.510       .  S
C28          C29   1.441       .  A
C29          H32   1.082       .  S
C33          C34   1.400       .  A
C33          C38   1.415       .  A
C34          C35   1.400       .  A
C34          H39   1.081       .  S
C35        C1124   1.484       .  S
C35          C36   1.397       .  A
C36          C37   1.403       .  A
C36          H40   1.085       .  S
C37          C79   1.490       .  S
C37          C38   1.428       .  A
C38          H41   1.079       .  S
C42          C82   1.478       .  S
C42          C43   1.411       .  A
C42          C47   1.392       .  A
C43          C44   1.419       .  A
C43          H48   1.083       .  S
C44         C560   1.492       .  S
C44          C45   1.406       .  A
C45          C46   1.411       .  A
C45          H49   1.082       .  S
C46        C1110   1.503       .  S
C46          C47   1.402       .  A
C47          H50   1.081       .  S
C51         C658   1.496       .  S
C51          C52   1.424       .  A
C51          C56   1.383       .  A
C52          C53   1.443       .  A
C52          H57   1.082       .  S
C53         C242   1.519       .  S
C53          C54   1.416       .  A
C54          C55   1.411       .  A
C54          H58   1.083       .  S
C55        C1113   1.471       .  S
C55          C56   1.379       .  A
C56          H59   1.087       .  S
Zn60         O64   1.971       .  S
Zn60         O65   2.052       .  S
Zn60         O69   2.017       .  S
Zn60         O76   1.996       .  S
Zn61         O64   1.937       .  S
Zn61         O66   2.047       .  S
Zn61         O68   2.002       .  S
Zn61         O72   2.008       .  S
Zn62         O64   1.961       .  S
Zn62         O67   2.068       .  S
Zn62         O70   2.068       .  S
Zn62         O73   2.021       .  S
Zn63         O64   1.923       .  S
Zn63         O71   2.088       .  S
Zn63         O74   2.103       .  S
Zn63         O75   2.065       .  S
O65          C77   1.277       .  A
O66          C78   1.283       .  A
O67          C79   1.285       .  A
O68          C77   1.274       .  A
O69          C79   1.273       .  A
O70          C78   1.278       .  A
O71          C80   1.286       .  A
O72          C81   1.263       .  A
O73          C80   1.271       .  A
O74          C81   1.290       .  A
O75          C82   1.284       .  A
O76          C82   1.265       .  A
C77         C406   1.468       .  S
C78         C621   1.495       .  S
C80         C428   1.480       .  S
C81         C265   1.492       .  S
C83         C715   1.499       .  S
C83          C84   1.411       .  A
C83          C88   1.430       .  A
C84          C85   1.405       .  A
C84          H89   1.084       .  S
C85        C1096   1.461       .  S
C85          C86   1.378       .  A
C86          C87   1.388       .  A
C86          H90   1.086       .  S
C87         C118   1.488       .  S
C87          C88   1.421       .  A
C88          H91   1.083       .  S
C92         C500   1.475       .  S
C92          C93   1.418       .  A
C92          C97   1.400       .  A
C93          C94   1.413       .  A
C93          H98   1.083       .  S
C94         C321   1.479       .  S
C94          C95   1.401       .  A
C95          C96   1.401       .  A
C95          H99   1.081       .  S
C96        C1099   1.506       .  S
C96          C97   1.397       .  A
C97         H100   1.084       .  S
Zn101       O105   1.929   1_655  S
Zn101       O106   2.005       .  S
Zn101       O110   2.018       .  S
Zn101       O117   2.069       .  S
Zn102       O105   1.955   1_655  S
Zn102       O107   2.000   1_655  S
Zn102       O109   2.050       .  S
Zn102       O113   1.956   1_655  S
Zn103       O105   1.916       .  S
Zn103       O108   2.136       .  S
Zn103       O111   2.070       .  S
Zn103       O114   2.121       .  S
Zn104       O105   1.991       .  S
Zn104       O112   2.015       .  S
Zn104       O115   2.125       .  S
Zn104       O116   2.019   1_455  S
O106        C118   1.278       .  A
O107        C119   1.269       .  A
O108        C120   1.292   1_455  A
O109        C118   1.272       .  A
O110        C120   1.274       .  A
O111        C119   1.284       .  A
O112        C121   1.271       .  A
O113        C122   1.270       .  A
O114        C121   1.292       .  A
O115        C122   1.278       .  A
O116        C123   1.283       .  A
O117        C123   1.280       .  A
C119        C351   1.488       .  S
C120        C612   1.509       .  S
C121        C256   1.503       .  S
C122        C442   1.509       .  S
C123        C408   1.494       .  S
C124        C400   1.498       .  S
C124        C125   1.435       .  A
C124        C129   1.409       .  A
C125        C126   1.425       .  A
C125        H130   1.083       .  S
C126        C177   1.488       .  S
C126        C127   1.388       .  A
C127        C128   1.377       .  A
C127        H131   1.088       .  S
C128       C1082   1.464       .  S
C128        C129   1.403       .  A
C129        H132   1.084       .  S
C133        C539   1.504       .  S
C133        C134   1.407       .  A
C133        C138   1.427       .  A
C134        C135   1.410       .  A
C134        H139   1.080       .  S
C135       C1085   1.508       .  S
C135        C136   1.393       .  A
C136        C137   1.395       .  A
C136        H140   1.076       .  S
C137        C498   1.491       .  S
C137        C138   1.422       .  A
C138        H141   1.083       .  S
C142        C559   1.504       .  S
C142        C143   1.432       .  A
C142        C147   1.414       .  A
C143        C144   1.424       .  A
C143        H148   1.082       .  S
C144        C200   1.490       .  S
C144        C145   1.387       .  A
C145        C146   1.396       .  A
C145        H149   1.085       .  S
C146       C1068   1.498       .  S
C146        C147   1.411       .  A
C147        H150   1.076       .  S
C151        C152   1.427       .  A
C151        C156   1.410       .  A
C152        C153   1.422       .  A
C152        H157   1.082       .  S
C153        C178   1.487       .  S
C153        C154   1.397       .  A
C154        C155   1.386       .  A
C154        H158   1.075       .  S
C155       C1071   1.505       .  S
C155        C156   1.411       .  A
C156        H159   1.080       .  S
Zn160       O164   1.901       .  S
Zn160       O165   2.018       .  S
Zn160       O169   2.023       .  S
Zn160       O176   2.028       .  S
Zn161       O164   1.968       .  S
Zn161       O166   2.040       .  S
Zn161       O168   2.074       .  S
Zn161       O172   2.065       .  S
Zn162       O164   2.039       .  S
Zn162       O167   2.060       .  S
Zn162       O170   2.086       .  S
Zn162       O173   2.090       .  S
Zn163       O164   1.969       .  S
Zn163       O171   2.064       .  S
Zn163       O174   2.080       .  S
Zn163       O175   2.015       .  S
O165        C177   1.278       .  A
O166        C178   1.277       .  A
O167        C179   1.271       .  A
O168        C177   1.268       .  A
O169        C179   1.279       .  A
O170        C178   1.276       .  A
O171        C180   1.283       .  A
O172        C181   1.272       .  A
O173        C180   1.285       .  A
O174        C181   1.282       .  A
O175        C182   1.268       .  A
O176        C182   1.281       .  A
C179        C760   1.492       .  S
C180        C444   1.493       .  S
C181        C569   1.506       .  S
C182        C505   1.471       .  S
Zn183       O187   1.971       .  S
Zn183       O188   1.985       .  S
Zn183       O192   2.051       .  S
Zn183       O199   2.063       .  S
Zn184       O187   2.042       .  S
Zn184       O189   2.054       .  S
Zn184       O191   2.091       .  S
Zn184       O195   2.084       .  S
Zn185       O187   1.910       .  S
Zn185       O190   2.047       .  S
Zn185       O193   2.041       .  S
Zn185       O196   2.026       .  S
Zn186       O187   2.007       .  S
Zn186       O194   2.060       .  S
Zn186       O197   2.119       .  S
Zn186       O198   2.127       .  S
O188        C200   1.277       .  A
O189        C201   1.271       .  A
O190        C202   1.281       .  A
O191        C200   1.279       .  A
O192        C202   1.265       .  A
O193        C201   1.283       .  A
O194        C203   1.274       .  A
O195        C204   1.285       .  A
O196        C203   1.281       .  A
O197        C204   1.288       .  A
O198        C205   1.289       .  A
O199        C205   1.278       .  A
C201        C258   1.496       .  S
C202        C274   1.495       .  S
C203        C510   1.482       .  S
C205        C324   1.510       .  S
C206        C716   1.506       .  S
C206        C207   1.431       .  A
C206        C211   1.402       .  A
C207        C208   1.437       .  A
C207        H212   1.082       .  S
C208        C244   1.500       .  S
C208        C209   1.409       .  A
C209        C210   1.392       .  A
C209        H213   1.085       .  S
C210       C1057   1.493       .  S
C210        C211   1.391       .  A
C211        H214   1.082       .  S
C215        C796   1.477       .  S
C215        C216   1.385       .  A
C215        C220   1.415       .  A
C216        C217   1.379       .  A
C216        H221   1.088       .  S
C217       C1054   1.458       .  S
C217        C218   1.404       .  A
C218        C219   1.409       .  A
C218        H222   1.084       .  S
C219        C320   1.493       .  S
C219        C220   1.423       .  A
C220        H223   1.072       .  S
Zn224       O228   2.005       .  S
Zn224       O229   2.026       .  S
Zn224       O233   2.107       .  S
Zn224       O240   2.033   1_545  S
Zn225       O228   1.974       .  S
Zn225       O230   2.175       .  S
Zn225       O232   2.147       .  S
Zn225       O236   2.084       .  S
Zn226       O228   1.943       .  S
Zn226       O231   1.981       .  S
Zn226       O234   1.995       .  S
Zn226       O237   2.014   1_545  S
Zn227       O228   2.039   1_565  S
Zn227       O235   2.095       .  S
Zn227       O238   2.017       .  S
Zn227       O239   2.103       .  S
O229        C241   1.272       .  A
O230        C242   1.293       .  A
O231        C243   1.274       .  A
O232        C241   1.295       .  A
O233        C243   1.278       .  A
O234        C242   1.266       .  A
O235        C244   1.277       .  A
O236        C245   1.287   1_545  A
O237        C244   1.276       .  A
O238        C245   1.275       .  A
O239        C246   1.281       .  A
O240        C246   1.281       .  A
C241        C278   1.514       .  S
C243        C746   1.489       .  S
C245        C433   1.490       .  S
C246        C565   1.494       .  S
C247        C318   1.478       .  S
C247        C248   1.409       .  A
C247        C252   1.414       .  A
C248        C249   1.395       .  A
C248        H253   1.084       .  S
C249       C1043   1.476       .  S
C249        C250   1.391       .  A
C250        C251   1.397       .  A
C250        H254   1.084       .  S
C251        C379   1.468       .  S
C251        C252   1.409       .  A
C252        H255   1.083       .  S
C256        C257   1.438       .  A
C256        C261   1.404       .  A
C257        C258   1.427       .  A
C257        H262   1.082       .  S
C258        C259   1.390       .  A
C259        C260   1.380       .  A
C259        H263   1.086       .  S
C260       C1040   1.455       .  S
C260        C261   1.398       .  A
C261        H264   1.084       .  S
C265        C266   1.425       .  A
C265        C270   1.388       .  A
C266        C267   1.430       .  A
C266        H271   1.083       .  S
C267        C322   1.501       .  S
C267        C268   1.405       .  A
C268        C269   1.400       .  A
C268        H272   1.084       .  S
C269       C1026   1.486       .  S
C269        C270   1.398       .  A
C270        H273   1.082       .  S
C274        C275   1.386       .  A
C274        C279   1.430       .  A
C275        C276   1.376       .  A
C275        H280   1.088       .  S
C276       C1029   1.454       .  S
C276        C277   1.402       .  A
C277        C278   1.408       .  A
C277        H281   1.084       .  S
C278        C279   1.442       .  A
C279        H282   1.082       .  S
C283        C538   1.481       .  S
C283        C284   1.383       .  A
C283        C288   1.417       .  A
C284        C285   1.382       .  A
C284        H289   1.083       .  S
C285       C1012   1.482       .  S
C285        C286   1.411       .  A
C286        C287   1.414       .  A
C286        H290   1.084       .  S
C287        C718   1.494       .  S
C287        C288   1.428       .  A
C288        H291   1.083       .  S
C292        C323   1.485       .  S
C292        C293   1.424       .  A
C292        C297   1.406       .  A
C293        C294   1.428       .  A
C293        H298   1.082       .  S
C294        C655   1.498       .  S
C294        C295   1.414       .  A
C295        C296   1.399       .  A
C295        H299   1.083       .  S
C296       C1015   1.515       .  S
C296        C297   1.390       .  A
C297        H300   1.075       .  S
Zn301       O305   1.947       .  S
Zn301       O306   2.028       .  S
Zn301       O310   2.051       .  S
Zn301       O317   2.028       .  S
Zn302       O305   1.899       .  S
Zn302       O307   1.999       .  S
Zn302       O309   1.982       .  S
Zn302       O313   2.036       .  S
Zn303       O305   1.968       .  S
Zn303       O308   2.072       .  S
Zn303       O311   2.065       .  S
Zn303       O314   2.054       .  S
Zn304       O305   1.969       .  S
Zn304       O312   2.040       .  S
Zn304       O315   2.079       .  S
Zn304       O316   2.058       .  S
O306        C318   1.271       .  A
O307        C319   1.276       .  A
O308        C320   1.282       .  A
O309        C318   1.272       .  A
O310        C320   1.277       .  A
O311        C319   1.277       .  A
O312        C321   1.286       .  A
O313        C322   1.277       .  A
O314        C321   1.281       .  A
O315        C322   1.273       .  A
O316        C323   1.275       .  A
O317        C323   1.279       .  A
C319        C501   1.493       .  S
C324        C325   1.440       .  A
C324        C329   1.410       .  A
C325        C326   1.431       .  A
C325        H330   1.082       .  S
C326        C404   1.504       .  S
C326        C327   1.391       .  A
C327        C328   1.379       .  A
C327        H331   1.087   1_545  S
C328       C1001   1.466   1_554  S
C328        C329   1.405       .  A
C329        H332   1.084       .  S
C333        C381   1.494       .  S
C333        C334   1.406       .  A
C333        C338   1.427       .  A
C334        C335   1.400       .  A
C334        H339   1.083       .  S
C335        C998   1.508       .  S
C335        C336   1.394       .  A
C336        C337   1.400       .  A
C336        H340   1.081       .  S
C337        C338   1.422       .  A
C338        H341   1.082       .  S
C342        C738   1.491       .  S
C342        C343   1.428       .  A
C342        C347   1.413       .  A
C343        C344   1.412       .  A
C343        H348   1.083       .  S
C344        C377   1.493       .  S
C344        C345   1.402       .  A
C345        C346   1.380       .  A
C345        H349   1.085       .  S
C346        C987   1.473       .  S
C346        C347   1.408       .  A
C347        H350   1.083       .  S
C351        C352   1.424       .  A
C351        C356   1.409       .  A
C352        C353   1.416       .  A
C352        H357   1.083       .  S
C353        C795   1.483       .  S
C353        C354   1.404       .  A
C354        C355   1.398       .  A
C354        H358   1.085       .  S
C355        C984   1.512       .  S
C355        C356   1.403       .  A
C356        H359   1.084       .  S
Zn360       O364   1.930       .  S
Zn360       O365   1.936       .  S
Zn360       O369   2.006       .  S
Zn360       O376   2.010       .  S
Zn361       O364   1.981       .  S
Zn361       O366   2.076       .  S
Zn361       O368   2.106       .  S
Zn361       O372   2.059       .  S
Zn362       O364   1.969       .  S
Zn362       O367   2.008       .  S
Zn362       O370   2.074       .  S
Zn362       O373   2.013       .  S
Zn363       O364   1.896       .  S
Zn363       O371   2.074       .  S
Zn363       O374   2.046       .  S
Zn363       O375   2.097       .  S
O365        C377   1.271       .  A
O366        C378   1.288       .  A
O367        C379   1.280       .  A
O368        C377   1.282       .  A
O369        C379   1.270       .  A
O370        C378   1.275       .  A
O371        C380   1.288       .  A
O372        C381   1.276       .  A
O373        C380   1.268       .  A
O374        C381   1.284       .  A
O375        C382   1.285       .  A
O376        C382   1.266       .  A
C378        C603   1.509       .  S
C380        C742   1.494       .  S
C382        C587   1.503       .  S
Zn383       O387   2.001       .  S
Zn383       O388   2.085       .  S
Zn383       O392   2.114   1_554  S
Zn383       O399   2.029   1_554  S
Zn384       O387   2.006       .  S
Zn384       O389   2.089   1_565  S
Zn384       O391   2.081       .  S
Zn384       O395   2.097   1_565  S
Zn385       O387   1.980       .  S
Zn385       O390   2.077   1_554  S
Zn385       O393   2.024       .  S
Zn385       O396   2.042   1_564  S
Zn386       O387   1.893   1_556  S
Zn386       O394   2.048   1_565  S
Zn386       O397   2.017   1_566  S
Zn386       O398   2.016       .  S
O388        C400   1.285       .  A
O389        C401   1.285       .  A
O390        C402   1.280       .  A
O391        C400   1.284       .  A
O392        C402   1.286       .  A
O393        C401   1.284   1_565  A
O394        C403   1.281       .  A
O395        C404   1.274       .  A
O396        C403   1.267       .  A
O397        C404   1.280       .  A
O398        C405   1.282       .  A
O399        C405   1.269       .  A
C401        C424   1.498       .  S
C402        C469   1.509       .  S
C403        C592   1.490       .  S
C405        C755   1.478       .  S
C406        C407   1.425       .  A
C406        C411   1.390       .  A
C407        C408   1.424       .  A
C407        H412   1.081       .  S
C408        C409   1.401       .  A
C409        C410   1.387       .  A
C409        H413   1.085       .  S
C410        C970   1.448       .  S
C410        C411   1.380       .  A
C411        H414   1.088       .  S
C415        C497   1.501       .  S
C415        C416   1.403       .  A
C415        C420   1.435       .  A
C416        C417   1.397       .  A
C416        H421   1.084       .  S
C417        C973   1.461       .  S
C417        C418   1.380       .  A
C418        C419   1.385       .  A
C418        H422   1.087       .  S
C419        C740   1.484       .  S
C419        C420   1.429       .  A
C420        H423   1.083       .  S
C424        C425   1.409       .  A
C424        C429   1.424       .  A
C425        C426   1.406       .  A
C425        H430   1.084   1_545  S
C426        C956   1.503       .  S
C426        C427   1.399       .  A
C427        C428   1.395       .  A
C427        H431   1.084       .  S
C428        C429   1.418       .  A
C429        H432   1.082       .  S
C433        C434   1.409   1_565  A
C433        C438   1.429       .  A
C434        C435   1.401   1_545  A
C434        H439   1.083       .  S
C435        C959   1.468       .  S
C435        C436   1.382       .  A
C436        C437   1.399       .  A
C436        H440   1.085       .  S
C437        C499   1.496       .  S
C437        C438   1.419       .  A
C438        H441   1.082       .  S
C442        C443   1.428       .  A
C442        C447   1.402       .  A
C443        C444   1.436       .  A
C443        H448   1.082       .  S
C444        C445   1.406       .  A
C445        C446   1.398       .  A
C445        H449   1.084       .  S
C446        C945   1.469       .  S
C446        C447   1.375       .  A
C447        H450   1.084       .  S
C451        C561   1.473       .  S
C451        C452   1.389       .  A
C451        C456   1.404       .  A
C452        C453   1.398       .  A
C452        H457   1.077       .  S
C453        C942   1.508       .  S
C453        C454   1.421       .  A
C454        C455   1.406       .  A
C454        H458   1.080       .  S
C455        C495   1.493       .  S
C455        C456   1.420       .  A
C456        H459   1.083       .  S
C460        C461   1.406       .  A
C460        C465   1.412       .  A
C461        C462   1.392       .  A
C461        H466   1.083   1_554  S
C462        C931   1.474   1_554  S
C462        C463   1.391       .  A
C463        C464   1.394       .  A
C463        H467   1.083       .  S
C464        C496   1.469       .  S
C464        C465   1.406       .  A
C465        H468   1.083       .  S
C469        C470   1.443       .  A
C469        C474   1.402       .  A
C470        C471   1.437       .  A
C470        H475   1.081       .  S
C471        C717   1.501       .  S
C471        C472   1.390       .  A
C472        C473   1.379       .  A
C472        H476   1.088       .  S
C473        C928   1.455       .  S
C473        C474   1.399       .  A
C474        H477   1.085       .  S
Zn478       O482   1.899       .  S
Zn478       O483   2.107       .  S
Zn478       O487   2.106       .  S
Zn478       O494   2.051       .  S
Zn479       O482   1.913       .  S
Zn479       O484   2.012       .  S
Zn479       O486   1.968       .  S
Zn479       O490   1.974       .  S
Zn480       O482   1.937       .  S
Zn480       O485   2.030       .  S
Zn480       O488   1.984       .  S
Zn480       O491   2.037       .  S
Zn481       O482   1.972       .  S
Zn481       O489   2.048       .  S
Zn481       O492   2.077       .  S
Zn481       O493   1.996       .  S
O483        C495   1.287       .  A
O484        C496   1.270       .  A
O485        C497   1.272       .  A
O486        C495   1.266       .  A
O487        C497   1.289       .  A
O488        C496   1.275       .  A
O489        C498   1.284       .  A
O490        C499   1.275       .  A
O491        C498   1.271       .  A
O492        C499   1.276       .  A
O493        C500   1.269       .  A
O494        C500   1.285       .  A
C501        C502   1.408       .  A
C501        C506   1.421       .  A
C502        C503   1.396       .  A
C502        H507   1.084       .  S
C503        C914   1.474       .  S
C503        C504   1.389       .  A
C504        C505   1.387       .  A
C504        H508   1.084       .  S
C505        C506   1.417       .  A
C506        H509   1.083       .  S
C510        C511   1.423       .  A
C510        C515   1.392       .  A
C511        C512   1.432       .  A
C511        H516   1.083       .  S
C512        C540   1.497       .  S
C512        C513   1.406       .  A
C513        C514   1.397       .  A
C513        H517   1.084       .  S
C514        C917   1.467       .  S
C514        C515   1.380       .  A
C515        H518   1.087       .  S
Zn519       O523   1.950   1_556  S
Zn519       O524   2.077       .  S
Zn519       O528   1.991       .  S
Zn519       O535   2.011       .  S
Zn520       O523   1.973       .  S
Zn520       O525   2.095       .  S
Zn520       O527   2.022   1_554  S
Zn520       O531   2.034       .  S
Zn521       O523   1.975       .  S
Zn521       O526   2.080   1_554  S
Zn521       O529   2.036       .  S
Zn521       O532   2.056       .  S
Zn522       O523   1.904       .  S
Zn522       O530   2.067       .  S
Zn522       O533   2.066       .  S
Zn522       O534   2.060       .  S
O524        C536   1.276       .  A
O525        C537   1.280       .  A
O526        C538   1.279       .  A
O527        C536   1.281       .  A
O528        C538   1.281       .  A
O529        C537   1.281       .  A
O530        C539   1.286       .  A
O531        C540   1.273       .  A
O532        C539   1.276       .  A
O533        C540   1.284       .  A
O534        C541   1.282   1_554  A
O535        C541   1.269       .  A
C536        C583   1.495       .  S
C537        C619   1.511       .  S
C541        C773   1.487       .  S
Zn542       O546   1.934   1_565  S
Zn542       O547   2.081   1_565  S
Zn542       O551   2.050       .  S
Zn542       O558   2.085       .  S
Zn543       O546   1.987       .  S
Zn543       O548   2.065   1_455  S
Zn543       O550   2.064       .  S
Zn543       O554   2.116       .  S
Zn544       O546   1.980   1_665  S
Zn544       O549   2.005       .  S
Zn544       O552   2.038   1_565  S
Zn544       O555   2.090       .  S
Zn545       O546   1.948   1_565  S
Zn545       O553   2.053   1_455  S
Zn545       O556   2.059   1_565  S
Zn545       O557   2.013       .  S
O547        C559   1.286       .  A
O548        C560   1.284       .  A
O549        C561   1.267       .  A
O550        C559   1.278       .  A
O551        C561   1.281   1_455  A
O552        C560   1.278       .  A
O553        C562   1.281       .  A
O554        C563   1.283       .  A
O555        C562   1.278       .  A
O556        C563   1.286       .  A
O557        C564   1.267       .  A
O558        C564   1.285       .  A
C562        C689   1.499       .  S
C563        C601   1.516       .  S
C564        C576   1.482       .  S
C565        C566   1.387       .  A
C565        C570   1.434       .  A
C566        C567   1.375       .  A
C566        H571   1.088       .  S
C567        C903   1.454       .  S
C567        C568   1.395       .  A
C568        C569   1.405       .  A
C568        H572   1.084       .  S
C569        C570   1.442       .  A
C570        H573   1.082       .  S
C574        C797   1.494       .  S
C574        C575   1.423       .  A
C574        C579   1.402       .  A
C575        C576   1.423       .  A
C575        H580   1.082       .  S
C576        C577   1.395       .  A
C577        C578   1.404       .  A
C577        H581   1.082       .  S
C578        C900   1.501       .  S
C578        C579   1.394       .  A
C579        H582   1.080       .  S
C583        C584   1.396       .  A
C583        C588   1.418       .  A
C584        C585   1.395       .  A
C584        H589   1.076   1_556  S
C585        C886   1.508   1_556  S
C585        C586   1.414       .  A
C586        C587   1.405       .  A
C586        H590   1.080       .  S
C587        C588   1.429       .  A
C588        H591   1.083       .  S
C592        C593   1.426       .  A
C592        C597   1.386       .  A
C593        C594   1.436       .  A
C593        H598   1.083       .  S
C594        C654   1.509       .  S
C594        C595   1.414       .  A
C595        C596   1.410       .  A
C595        H599   1.084       .  S
C596        C889   1.477       .  S
C596        C597   1.379       .  A
C597        H600   1.087       .  S
C601        C602   1.439       .  A
C601        C606   1.408       .  A
C602        C603   1.435       .  A
C602        H607   1.082       .  S
C603        C604   1.397       .  A
C604        C605   1.396       .  A
C604        H608   1.081       .  S
C605        C872   1.510       .  S
C605        C606   1.402       .  A
C606        H609   1.076       .  S
C610        C657   1.490       .  S
C610        C611   1.421       .  A
C610        C615   1.389       .  A
C611        C612   1.436       .  A
C611        H616   1.083       .  S
C612        C613   1.413       .  A
C613        C614   1.408       .  A
C613        H617   1.084   1_655  S
C614        C875   1.468       .  S
C614        C615   1.382       .  A
C615        H618   1.087       .  S
C619        C620   1.426       .  A
C619        C624   1.406       .  A
C620        C621   1.433       .  A
C620        H625   1.077       .  S
C621        C622   1.400       .  A
C622        C623   1.386       .  A
C622        H626   1.079       .  S
C623        C858   1.494       .  S
C623        C624   1.401       .  A
C624        H627   1.081       .  S
C628        C741   1.490       .  S
C628        C629   1.387       .  A
C628        C633   1.431       .  A
C629        C630   1.375       .  A
C629        H634   1.088       .  S
C630        C861   1.462   1_556  S
C630        C631   1.402       .  A
C631        C632   1.412       .  A
C631        H635   1.084       .  S
C632        C656   1.511       .  S
C632        C633   1.439       .  A
C633        H636   1.082       .  S
Zn637       O641   1.985       .  S
Zn637       O642   2.114       .  S
Zn637       O646   2.077       .  S
Zn637       O653   2.040       .  S
Zn638       O641   1.981       .  S
Zn638       O643   2.001       .  S
Zn638       O645   2.075       .  S
Zn638       O649   2.048       .  S
Zn639       O641   2.021       .  S
Zn639       O644   2.105       .  S
Zn639       O647   2.102       .  S
Zn639       O650   2.070       .  S
Zn640       O641   1.898       .  S
Zn640       O648   2.013       .  S
Zn640       O651   2.039       .  S
Zn640       O652   2.014       .  S
O642        C654   1.287       .  A
O643        C655   1.280       .  A
O644        C656   1.285       .  A
O645        C654   1.280       .  A
O646        C656   1.286       .  A
O647        C655   1.286       .  A
O648        C657   1.278       .  A
O649        C658   1.267       .  A
O650        C657   1.272       .  A
O651        C658   1.281       .  A
O652        C659   1.280       .  A
O653        C659   1.271       .  A
C659        C678   1.473       .  S
C660        C800   1.487       .  S
C660        C661   1.392       .  A
C660        C665   1.417       .  A
C661        C662   1.400       .  A
C661        H666   1.075       .  S
C662        C844   1.507       .  S
C662        C663   1.399       .  A
C663        C664   1.406       .  A
C663        H667   1.080       .  S
C664        C665   1.422       .  A
C665        H668   1.083       .  S
C669        C739   1.503       .  S
C669        C670   1.413       .  A
C669        C674   1.432       .  A
C670        C671   1.408       .  A
C670        H675   1.083   1_655  S
C671        C847   1.465       .  S
C671        C672   1.381       .  A
C672        C673   1.388       .  A
C672        H676   1.087       .  S
C673        C713   1.483       .  S
C673        C674   1.413       .  A
C674        H677   1.083       .  S
C678        C679   1.390       .  A
C678        C683   1.415       .  A
C679        C680   1.385       .  A
C679        H684   1.087       .  S
C680        C830   1.473       .  S
C680        C681   1.399       .  A
C681        C682   1.407       .  A
C681        H685   1.083   1_545  S
C682        C683   1.423       .  A
C683        H686   1.082       .  S
C687        C714   1.504       .  S
C687        C688   1.436       .  A
C687        C692   1.392       .  A
C688        C689   1.441       .  A
C688        H693   1.083       .  S
C689        C690   1.401       .  A
C690        C691   1.393       .  A
C690        H694   1.084       .  S
C691        C833   1.463       .  S
C691        C692   1.377       .  A
C692        H695   1.087       .  S
Zn696       O700   1.973       .  S
Zn696       O701   2.053       .  S
Zn696       O705   2.050       .  S
Zn696       O712   2.067       .  S
Zn697       O700   1.906       .  S
Zn697       O702   2.026       .  S
Zn697       O704   1.998       .  S
Zn697       O708   2.069       .  S
Zn698       O700   2.018       .  S
Zn698       O703   2.109       .  S
Zn698       O706   2.088       .  S
Zn698       O709   2.092       .  S
Zn699       O700   1.983       .  S
Zn699       O707   2.044       .  S
Zn699       O710   2.074       .  S
Zn699       O711   2.070       .  S
O701        C713   1.273       .  A
O702        C714   1.284       .  A
O703        C715   1.291       .  A
O704        C713   1.276       .  A
O705        C715   1.280       .  A
O706        C714   1.274       .  A
O707        C716   1.286       .  A
O708        C717   1.282       .  A
O709        C716   1.280       .  A
O710        C717   1.272       .  A
O711        C718   1.282       .  A
O712        C718   1.281       .  A
Zn719       O723   1.982       .  S
Zn719       O724   2.016       .  S
Zn719       O728   2.000       .  S
Zn719       O735   2.094   1_455  S
Zn720       O723   1.987   1_554  S
Zn720       O725   2.003       .  S
Zn720       O727   2.098       .  S
Zn720       O731   2.037   1_455  S
Zn721       O723   1.973       .  S
Zn721       O726   2.106       .  S
Zn721       O729   2.148       .  S
Zn721       O732   2.141       .  S
Zn722       O723   1.973   1_655  S
Zn722       O730   1.981       .  S
Zn722       O733   2.064   1_556  S
Zn722       O734   2.016       .  S
O724        C736   1.276   1_556  A
O725        C737   1.270       .  A
O726        C738   1.288       .  A
O727        C736   1.279       .  A
O728        C738   1.273       .  A
O729        C737   1.293   1_556  A
O730        C739   1.269       .  A
O731        C740   1.282       .  A
O732        C739   1.290   1_455  A
O733        C740   1.274       .  A
O734        C741   1.277       .  A
O735        C741   1.278       .  A
C737        C764   1.509       .  S
C742        C743   1.400       .  A
C742        C747   1.440       .  A
C743        C744   1.384       .  A
C743        H748   1.084       .  S
C744        C816   1.446       .  S
C744        C745   1.376       .  A
C745        C746   1.387       .  A
C745        H749   1.088       .  S
C746        C747   1.429       .  A
C747        H750   1.082       .  S
C751        C798   1.490       .  S
C751        C752   1.403       .  A
C751        C756   1.427       .  A
C752        C753   1.385       .  A
C752        H757   1.084       .  S
C753        C819   1.452       .  S
C753        C754   1.376       .  A
C754        C755   1.390       .  A
C754        H758   1.086       .  S
C755        C756   1.421       .  A
C756        H759   1.078       .  S
C760        C761   1.388       .  A
C760        C765   1.422       .  A
C761        C762   1.377       .  A
C761        H766   1.088       .  S
C762        C802   1.465       .  S
C762        C763   1.406       .  A
C763        C764   1.413       .  A
C763        H767   1.083   1_554  S
C764        C765   1.440       .  A
C765        H768   1.082       .  S
C769        C799   1.490       .  S
C769        C770   1.398       .  A
C769        C774   1.412       .  A
C770        C771   1.400       .  A
C770        H775   1.079       .  S
C771        C805   1.495   1_556  S
C771        C772   1.405       .  A
C772        C773   1.404       .  A
C772        H776   1.084       .  S
C773        C774   1.421       .  A
C774        H777   1.083       .  S
Zn778       O782   1.957       .  S
Zn778       O783   2.070       .  S
Zn778       O787   2.076       .  S
Zn778       O794   2.058       .  S
Zn779       O782   1.957       .  S
Zn779       O784   2.043       .  S
Zn779       O786   2.023       .  S
Zn779       O790   2.068       .  S
Zn780       O782   1.874       .  S
Zn780       O785   2.010       .  S
Zn780       O788   2.020       .  S
Zn780       O791   2.015       .  S
Zn781       O782   1.956       .  S
Zn781       O789   2.037       .  S
Zn781       O792   1.993       .  S
Zn781       O793   2.029       .  S
O783        C795   1.281       .  A
O784        C796   1.272       .  A
O785        C797   1.277       .  A
O786        C795   1.282       .  A
O787        C797   1.272       .  A
O788        C796   1.276       .  A
O789        C798   1.270       .  A
O790        C799   1.273       .  A
O791        C798   1.278       .  A
O792        C799   1.275       .  A
O793        C800   1.273       .  A
O794        C800   1.288       .  A
C801        C802   1.401       .  A
C801        C806   1.406   1_554  A
C801        H808   1.083       .  S
C802        C803   1.421       .  A
C803        C804   1.389       .  A
C803        N810   1.434       .  S
C804        C805   1.400       .  A
C804        H809   1.083       .  S
C805        C806   1.416   1_554  A
C806        N807   1.429       .  S
N807        H811   1.045       .  S
N807        H812   1.046       .  S
N810        H813   1.046       .  S
N810        H814   1.041       .  S
C815        C816   1.393       .  A
C815        C820   1.384   1_545  A
C815        H822   1.085       .  S
C816        C817   1.412       .  A
C817        C818   1.388   1_545  A
C817        N824   1.434       .  S
C818        C819   1.398       .  A
C818        H823   1.083       .  S
C819        C820   1.414       .  A
C820        N821   1.435       .  S
N821        H825   1.045       .  S
N821        H826   1.046       .  S
N824        H827   1.046       .  S
N824        H828   1.043       .  S
C829        C830   1.414       .  A
C829        C834   1.389       .  A
C829        H836   1.082       .  S
C830        C831   1.404   1_545  A
C831        C832   1.397       .  A
C831        N838   1.438       .  S
C832        C833   1.411       .  A
C832        H837   1.084       .  S
C833        C834   1.394   1_565  A
C834        N835   1.433       .  S
N835        H839   1.046       .  S
N835        H840   1.046       .  S
N838        H841   1.046       .  S
N838        H842   1.045       .  S
C843        C844   1.411       .  A
C843        C848   1.410       .  A
C843        H850   1.081       .  S
C844        C845   1.411   1_455  A
C845        C846   1.398       .  A
C845        N852   1.435       .  S
C846        C847   1.409       .  A
C846        H851   1.084       .  S
C847        C848   1.407   1_655  A
C848        N849   1.432       .  S
N849        H853   1.045       .  S
N849        H854   1.044       .  S
N852        H855   1.046       .  S
N852        H856   1.046       .  S
C857        C858   1.404       .  A
C857        C862   1.394       .  A
C857        H864   1.084       .  S
C858        C859   1.423       .  A
C859        C860   1.396       .  A
C859        N866   1.433       .  S
C860        C861   1.392       .  A
C860        H865   1.084       .  S
C861        C862   1.415       .  A
C862        N863   1.433       .  S
N863        H867   1.045   1_554  S
N863        H868   1.044   1_554  S
N866        H869   1.046       .  S
N866        H870   1.046       .  S
C871        C872   1.415       .  A
C871        C876   1.408       .  A
C871        H878   1.083       .  S
C872        C873   1.411   1_455  A
C873        C874   1.395       .  A
C873        N880   1.436       .  S
C874        C875   1.410       .  A
C874        H879   1.084       .  S
C875        C876   1.404   1_655  A
C876        N877   1.431       .  S
N877        H881   1.046       .  S
N877        H882   1.045       .  S
N880        H883   1.045       .  S
N880        H884   1.046       .  S
C885        C886   1.399       .  A
C885        C890   1.399   1_554  A
C885        H892   1.083   1_554  S
C886        C887   1.417       .  A
C887        C888   1.403       .  A
C887        N894   1.432       .  S
C888        C889   1.398   1_554  A
C888        H893   1.083       .  S
C889        C890   1.423       .  A
C890        N891   1.433       .  S
N891        H895   1.045       .  S
N891        H896   1.046       .  S
N894        H897   1.046       .  S
N894        H898   1.046       .  S
C899        C900   1.408       .  A
C899        C904   1.396       .  A
C899        H906   1.083   1_565  S
C900        C901   1.419       .  A
C901        C902   1.395       .  A
C901        N908   1.431       .  S
C902        C903   1.394       .  A
C902        H907   1.084       .  S
C903        C904   1.412       .  A
C904        N905   1.433       .  S
N905        H909   1.046       .  S
N905        H910   1.045   1_565  S
N908        H911   1.045       .  S
N908        H912   1.046       .  S
C913        C914   1.400       .  A
C913        C918   1.385       .  A
C913        H920   1.083       .  S
C914        C915   1.416       .  A
C915        C916   1.399       .  A
C915        N922   1.437       .  S
C916        C917   1.403       .  A
C916        H921   1.084       .  S
C917        C918   1.413       .  A
C918        N919   1.434       .  S
N919        H923   1.046       .  S
N919        H924   1.045       .  S
N922        H925   1.046       .  S
N922        H926   1.046       .  S
C927        C928   1.398       .  A
C927        C932   1.387       .  A
C927        H934   1.085       .  S
C928        C929   1.400       .  A
C929        C930   1.402       .  A
C929        N936   1.431       .  S
C930        C931   1.412       .  A
C930        H935   1.084   1_556  S
C931        C932   1.411       .  A
C932        N933   1.433       .  S
N933        H937   1.046       .  S
N933        H938   1.046       .  S
N936        H939   1.046   1_556  S
N936        H940   1.046       .  S
C941        C942   1.397       .  A
C941        C946   1.397       .  A
C941        H948   1.083       .  S
C942        C943   1.417       .  A
C943        C944   1.404   1_655  A
C943        N950   1.433       .  S
C944        C945   1.399       .  A
C944        H949   1.083       .  S
C945        C946   1.422   1_455  A
C946        N947   1.434       .  S
N947        H951   1.046       .  S
N947        H952   1.045       .  S
N950        H953   1.046       .  S
N950        H954   1.044       .  S
C955        C956   1.398   1_565  A
C955        C960   1.392       .  A
C955        H962   1.083       .  S
C956        C957   1.412       .  A
C957        C958   1.410       .  A
C957        N964   1.425       .  S
C958        C959   1.405   1_545  A
C958        H963   1.083       .  S
C959        C960   1.426       .  A
C960        N961   1.433       .  S
N961        H965   1.048       .  S
N961        H966   1.033       .  S
N964        H967   1.046       .  S
N964        H968   1.043       .  S
C969        C970   1.389       .  A
C969        C974   1.391       .  A
C969        H976   1.084       .  S
C970        C971   1.409       .  A
C971        C972   1.390       .  A
C971        N978   1.434       .  S
C972        C973   1.396       .  A
C972        H977   1.084       .  S
C973        C974   1.418       .  A
C974        N975   1.434       .  S
N975        H979   1.046       .  S
N975        H980   1.045       .  S
N978        H981   1.046       .  S
N978        H982   1.043       .  S
C983        C984   1.400       .  A
C983        C988   1.400       .  A
C983        H990   1.083       .  S
C984        C985   1.416       .  A
C985        C986   1.409       .  A
C985        N992   1.426       .  S
C986        C987   1.406       .  A
C986        H991   1.083       .  S
C987        C988   1.422       .  A
C988        N989   1.432       .  S
N989        H993   1.045       .  S
N989        H994   1.046       .  S
N992        H995   1.046       .  S
N992        H996   1.046       .  S
C997        C998   1.406       .  A
C997       C1002   1.394       .  A
C997       H1004   1.082       .  S
C998        C999   1.419   1_545  A
C999       C1000   1.404   1_565  A
C999       N1006   1.434       .  S
C1000      C1001   1.403       .  A
C1000      H1005   1.084   1_545  S
C1001      C1002   1.416       .  A
C1002      N1003   1.433       .  S
N1003      H1007   1.044       .  S
N1003      H1008   1.046       .  S
N1006      H1009   1.045       .  S
N1006      H1010   1.046       .  S
C1011      C1012   1.407       .  A
C1011      C1016   1.406       .  A
C1011      H1018   1.084       .  S
C1012      C1013   1.422       .  A
C1013      C1014   1.401       .  A
C1013      N1020   1.434       .  S
C1014      C1015   1.405       .  A
C1014      H1019   1.083       .  S
C1015      C1016   1.414       .  A
C1016      N1017   1.431       .  S
N1017      H1021   1.045       .  S
N1017      H1022   1.045       .  S
N1020      H1023   1.043       .  S
N1020      H1024   1.046       .  S
C1025      C1026   1.401       .  A
C1025      C1030   1.393       .  A
C1025      H1032   1.083       .  S
C1026      C1027   1.413       .  A
C1027      C1028   1.401       .  A
C1027      N1034   1.424       .  S
C1028      C1029   1.395       .  A
C1028      H1033   1.084       .  S
C1029      C1030   1.411       .  A
C1030      N1031   1.434       .  S
N1031      H1035   1.046       .  S
N1031      H1036   1.046       .  S
N1034      H1037   1.046       .  S
N1034      H1038   1.045       .  S
C1039      C1040   1.403       .  A
C1039      C1044   1.402       .  A
C1039      H1046   1.084       .  S
C1040      C1041   1.407       .  A
C1041      C1042   1.380       .  A
C1041      N1048   1.435       .  S
C1042      C1043   1.408       .  A
C1042      H1047   1.083       .  S
C1043      C1044   1.410       .  A
C1044      N1045   1.432       .  S
N1045      H1049   1.046       .  S
N1045      H1050   1.046       .  S
N1048      H1051   1.046       .  S
N1048      H1052   1.044       .  S
C1053      C1054   1.402       .  A
C1053      C1058   1.400       .  A
C1053      H1060   1.084       .  S
C1054      C1055   1.407       .  A
C1055      C1056   1.396       .  A
C1055      N1062   1.439       .  S
C1056      C1057   1.409       .  A
C1056      H1061   1.082       .  S
C1057      C1058   1.416       .  A
C1058      N1059   1.435       .  S
N1059      H1063   1.046       .  S
N1059      H1064   1.045       .  S
N1062      H1065   1.046       .  S
N1062      H1066   1.045       .  S
C1067      C1068   1.420       .  A
C1067      C1072   1.399       .  A
C1067      H1074   1.079       .  S
C1068      C1069   1.402   1_545  A
C1069      C1070   1.403       .  A
C1069      N1076   1.430       .  S
C1070      C1071   1.416       .  A
C1070      H1075   1.072       .  S
C1071      C1072   1.400   1_565  A
C1072      N1073   1.433       .  S
N1073      H1077   1.044       .  S
N1073      H1078   1.046   1_545  S
N1076      H1079   1.045       .  S
N1076      H1080   1.043       .  S
C1081      C1082   1.398       .  A
C1081      C1086   1.403       .  A
C1081      H1088   1.083       .  S
C1082      C1083   1.417       .  A
C1083      C1084   1.398       .  A
C1083      N1090   1.434       .  S
C1084      C1085   1.402       .  A
C1084      H1089   1.082       .  S
C1085      C1086   1.418       .  A
C1086      N1087   1.432       .  S
N1087      H1091   1.045       .  S
N1087      H1092   1.046       .  S
N1090      H1093   1.046       .  S
N1090      H1094   1.045       .  S
C1095      C1096   1.406       .  A
C1095      C1100   1.404       .  A
C1095      H1102   1.084       .  S
C1096      C1097   1.411       .  A
C1097      C1098   1.400       .  A
C1097      N1104   1.433       .  S
C1098      C1099   1.407       .  A
C1098      H1103   1.083       .  S
C1099      C1100   1.413       .  A
C1100      N1101   1.430       .  S
N1101      H1105   1.046       .  S
N1101      H1106   1.045       .  S
N1104      H1107   1.046       .  S
N1104      H1108   1.045       .  S
C1109      C1110   1.399       .  A
C1109      C1114   1.397       .  A
C1109      H1116   1.083       .  S
C1110      C1111   1.419       .  A
C1111      C1112   1.403       .  A
C1111      N1118   1.429       .  S
C1112      C1113   1.402       .  A
C1112      H1117   1.083       .  S
C1113      C1114   1.422       .  A
C1114      N1115   1.434       .  S
N1115      H1119   1.046       .  S
N1115      H1120   1.046       .  S
N1118      H1121   1.041       .  S
N1118      H1122   1.045       .  S
C1123      C1124   1.410       .  A
C1123      C1128   1.393       .  A
C1123      H1130   1.083       .  S
C1124      C1125   1.410   1_554  A
C1125      C1126   1.402       .  A
C1125      N1132   1.432       .  S
C1126      C1127   1.403   1_556  A
C1126      H1131   1.084       .  S
C1127      C1128   1.402       .  A
C1128      N1129   1.434       .  S
N1129      H1133   1.045       .  S
N1129      H1134   1.046       .  S
N1132      H1135   1.046       .  S
N1132      H1136   1.045       .  S
