geometry optimzed in LAMMPS
_audit_creation_date              2020-11-30 
_audit_creation_method            'lammps2cif' 
_symmetry_space_group_name_H-M    'P1' 
_symmetry_Int_Tables_number       1 
_symmetry_cell_setting            triclinic 
loop_ 
_symmetry_equiv_pos_as_xyz 
  x,y,z 
_cell_length_a                    39.64485014 
_cell_length_b                    40.546217860421955 
_cell_length_c                    31.972980361479685 
_cell_angle_alpha                 89.38085532888735 
_cell_angle_beta                  89.96610599247666 
_cell_angle_gamma                 90.0498403544099 
loop_ 
_atom_site_label 
_atom_site_type_symbol 
_atom_site_fract_x 
_atom_site_fract_y 
_atom_site_fract_z 
_atom_site_charge 
C1          C  0.24052704  0.12850137  0.31245530     0.86100
C2          C  0.26982561  0.15141579  0.32397199    -0.54100
C3          C  0.27175868  0.15950183  0.36511375     0.09000
C4          C  0.24453696  0.14271146  0.39221393     0.20000
C5          C  0.24499021  0.09802072  0.34101748    -0.54800
C6          C  0.24734435  0.10571570  0.38251083     0.09100
C7          C  0.20875184  0.14501187  0.33067059    -0.54400
C8          C  0.21077461  0.15261040  0.37207277     0.09700
H9          H  0.28639992  0.16246585  0.30060336     0.14200
H10         H  0.24621537  0.14874839  0.42597555     0.00000
H11         H  0.24359628  0.07268367  0.33093829     0.14500
H12         H  0.18715866  0.15200283  0.31163925     0.14300
C13         C  0.09344988  0.28766381  0.32004720     0.86100
C14         C  0.11307573  0.25718494  0.33600775    -0.54100
C15         C  0.12273584  0.25799222  0.37691389     0.09000
C16         C  0.11081003  0.28934424  0.39932930     0.20000
C17         C  0.06320052  0.28895444  0.34968911    -0.54800
C18         C  0.07207179  0.29009167  0.39097227     0.09100
C19         C  0.11512555  0.31734027  0.33191654    -0.54400
C20         C  0.12541121  0.31799933  0.37252932     0.09700
H21         H  0.11925878  0.23649715  0.31606100     0.14200
H22         H  0.11793922  0.29009498  0.43288634     0.00000
H23         H  0.03710083  0.28700718  0.34014460     0.14500
H24         H  0.12464929  0.33478303  0.30866638     0.14300
C25         C  0.40370025  0.29007821  0.31767337     0.86100
C26         C  0.38605381  0.32037920  0.33649944    -0.54100
C27         C  0.37828467  0.31773869  0.37807426     0.09000
C28         C  0.38940586  0.28474589  0.39784610     0.20000
C29         C  0.43503754  0.28607631  0.34576852    -0.54800
C30         C  0.42754758  0.28306635  0.38751200     0.09100
C31         C  0.38097937  0.26092503  0.32920531    -0.54400
C32         C  0.37277775  0.25817849  0.37044525     0.09700
H33         H  0.37980776  0.34223103  0.31811024     0.14200
H34         H  0.38341712  0.28249578  0.43170063     0.00000
H35         H  0.46081490  0.28859032  0.33505506     0.14500
H36         H  0.36986521  0.24504359  0.30571849     0.14300
C37         C  0.26133802  0.44445147  0.32098569     0.86100
C38         C  0.23234221  0.42139663  0.33271746    -0.54100
C39         C  0.22984056  0.41357166  0.37411591     0.09000
C40         C  0.25650601  0.43075925  0.40124073     0.20000
C41         C  0.25554360  0.47508118  0.34804435    -0.54800
C42         C  0.25328896  0.46782264  0.38998627     0.09100
C43         C  0.29311247  0.42895038  0.34038013    -0.54400
C44         C  0.29053801  0.42098651  0.38186464     0.09700
H45         H  0.21605860  0.41034325  0.30934303     0.14200
H46         H  0.25453169  0.42483103  0.43516633     0.00000
H47         H  0.25402549  0.99984937  0.33451636     0.14500
H48         H  0.31527113  0.42290232  0.32201380     0.14300
C49         C  0.23852650  0.13336358  0.12712179     0.86100
C50         C  0.20790790  0.15122957  0.10822068    -0.54100
C51         C  0.21094774  0.15946691  0.06692351     0.09000
C52         C  0.24394334  0.14676881  0.04692187     0.18600
C53         C  0.24171059  0.10245478  0.09994821    -0.54800
C54         C  0.24441735  0.10951725  0.05810956     0.09100
C55         C  0.26920340  0.15439933  0.11508389    -0.54400
C56         C  0.27264528  0.16132082  0.07345248     0.09700
H57         H  0.18686933  0.15979117  0.12699723     0.14200
H58         H  0.24605743  0.15205902  0.01287869     0.00000
H59         H  0.24080614  0.07729910  0.11173398     0.14500
H60         H  0.28705981  0.16318497  0.13824492     0.14300
C61         C  0.09395107  0.28970800  0.13525279     0.86100
C62         C  0.11227468  0.32158317  0.12315475    -0.54100
C63         C  0.11859788  0.32587134  0.08151073     0.09000
C64         C  0.10616762  0.29648880  0.05505999     0.20000
C65         C  0.06183607  0.28991211  0.10820731    -0.54800
C66         C  0.06847228  0.29332804  0.06631970     0.09100
C67         C  0.11495153  0.26172083  0.11647176    -0.54400
C68         C  0.12220918  0.26541739  0.07511478     0.09700
H69         H  0.12025139  0.33926719  0.14647777     0.14200
H70         H  0.11065654  0.29899977  0.02096001     0.00000
H71         H  0.03646518  0.28640734  0.12017226     0.14500
H72         H  0.12442974  0.24098063  0.13478204     0.14300
C73         C  0.39953354  0.29235260  0.13184237     0.86100
C74         C  0.37929361  0.26139939  0.12077118    -0.54100
C75         C  0.37322187  0.25740592  0.07911754     0.09000
C76         C  0.38720355  0.28551082  0.05165570     0.20000
C77         C  0.43161833  0.29020353  0.10474344    -0.54800
C78         C  0.42499309  0.28676544  0.06293928     0.09100
C79         C  0.38025461  0.32122805  0.11156684    -0.54400
C80         C  0.37252480  0.31715431  0.07032149     0.09700
H81         H  0.37001424  0.24417579  0.14438903     0.14200
H82         H  0.38200275  0.28272822  0.01772671     0.00000
H83         H  0.45712841  0.29264601  0.11654961     0.14500
H84         H  0.37098095  0.34216815  0.12907007     0.14300
C85         C  0.25807441  0.44635828  0.13575814     0.86100
C86         C  0.28497263  0.42411959  0.11581766    -0.54100
C87         C  0.27913357  0.41631728  0.07514798     0.09000
C88         C  0.24787894  0.43339501  0.05649350     0.20000
C89         C  0.25893117  0.47714349  0.10722429    -0.54800
C90         C  0.25322566  0.47019919  0.06599063     0.09100
C91         C  0.22429062  0.42952554  0.12631860    -0.54400
C92         C  0.21847904  0.42311680  0.08507619     0.09700
H93         H  0.30601239  0.41341927  0.13294586     0.14200
H94         H  0.24373947  0.42805423  0.02287315     0.00000
H95         H  0.26272242  0.00192604  0.11461744     0.14500
H96         H  0.20697112  0.42200498  0.15098039     0.14300
O97         O  0.03233245  0.26319429  0.02211137    -0.74800
O98         O  0.46671565  0.25802538  0.43450350    -0.74800
O99         O  0.03551857  0.26159021  0.43786766    -0.74900
O100        O  0.46420524  0.25978216  0.01898718    -0.74900
O101        O  0.46210807  0.31483846  0.01694346    -0.74900
O102        O  0.03231283  0.31654541  0.43463883    -0.74800
O103        O  0.46359146  0.31300865  0.43253258    -0.74800
O104        O  0.03031954  0.31823484  0.01876847    -0.74900
Ni105      Ni  0.49983029  0.25870751  0.47841868     1.25400
Ni106      Ni  0.49695717  0.31766347  0.47558894     1.25400
C107        C  0.04223577  0.29152704  0.03440352     0.87400
C108        C  0.45390838  0.28469728  0.41976532     0.87300
C109        C  0.04585482  0.28940804  0.42339734     0.87300
C110        C  0.45170023  0.28708371  0.03136170     0.87500
O111        O  0.21963026  0.06917932  0.42914815    -0.74800
O112        O  0.22057161  0.00377683  0.01625991    -0.74800
O113        O  0.21835652  0.07077425  0.01359583    -0.74900
O114        O  0.22136112  0.00244553  0.43188931    -0.74900
O115        O  0.27768209  0.00397345  0.43353282    -0.74900
O116        O  0.27465222  0.07325933  0.01406629    -0.74800
O117        O  0.27685812  0.00653596  0.01799731    -0.74800
O118        O  0.27599005  0.07067945  0.42985206    -0.74900
Ni119      Ni  0.21793424  0.03649345  0.47272908     1.25400
Ni120      Ni  0.27831392  0.03863530  0.47390637     1.25400
C121        C  0.24769105  0.08055392  0.41535689     0.87400
C122        C  0.25281253  0.49560128  0.03335304     0.87300
C123        C  0.24590985  0.08339082  0.02685936     0.87300
C124        C  0.25270772  0.49365707  0.42153085     0.87500
C125        C  0.29618537  0.38707828  0.05756324    -0.00500
C126        C  0.32513458  0.39136575  0.03273324    -0.12400
C127        C  0.34949860  0.36620465  0.03066085     0.01700
C128        C  0.34408909  0.33625085  0.05241224    -0.00600
C129        C  0.31253243  0.33016620  0.07064454    -0.12300
C130        C  0.28940470  0.35573910  0.07536260     0.01600
H131        H  0.33057657  0.41543325  0.01922650     0.14600
H132        H  0.30845352  0.30715754  0.08756883     0.14600
C133        C  0.26307192  0.35148706  0.10620565     0.36200
C134        C  0.38121766  0.37275575  0.51005917     0.36100
N135        N  0.24306613  0.34928540  0.13245477    -0.44100
N136        N  0.40665158  0.37793265  0.49345706    -0.44100
C137        C  0.13732560  0.35601520  0.06683595    -0.00500
C138        C  0.13127044  0.38579618  0.08769109    -0.12400
C139        C  0.15613997  0.41016891  0.08980577     0.01700
C140        C  0.18793724  0.40473718  0.07118708    -0.00600
C141        C  0.19135821  0.37824920  0.04352571    -0.12300
C142        C  0.16577368  0.35436285  0.04046136     0.01600
H143        H  0.10819734  0.38879332  0.10550330     0.14600
H144        H  0.21491705  0.37463909  0.02695990     0.14600
C145        C  0.17045616  0.32722275  0.01273317     0.36200
C146        C  0.14904592  0.43968629  0.11312163     0.36100
N147        N  0.17341419  0.30496600  0.49085711    -0.44100
N148        N  0.14352064  0.46332567  0.13188790    -0.44100
C149        C  0.14681648  0.24260664  0.05558606    -0.00500
C150        C  0.13552149  0.21226013  0.03992572    -0.12400
C151        C  0.15758520  0.18506852  0.03763765     0.01700
C152        C  0.19118584  0.18816536  0.05157280    -0.00600
C153        C  0.20292269  0.21920130  0.06337537    -0.12300
C154        C  0.18132740  0.24621718  0.06491979     0.01600
H155        H  0.10894873  0.20896990  0.03311801     0.14600
H156        H  0.22830650  0.22163680  0.07560078     0.14600
C157        C  0.19455605  0.27645320  0.08101962     0.36200
C158        C  0.14469342  0.15363109  0.02429089     0.36100
N159        N  0.20542559  0.30077260  0.09368371    -0.44100
N160        N  0.13445453  0.12842647  0.51333538    -0.44100
C161        C  0.35317744  0.22906555  0.06371770    -0.00500
C162        C  0.32454493  0.23480024  0.03893161    -0.12400
C163        C  0.29950306  0.21041929  0.03520876     0.01700
C164        C  0.30245417  0.18068439  0.05841630    -0.00600
C165        C  0.33384959  0.17310090  0.07652765    -0.12300
C166        C  0.35926739  0.19685285  0.07890336     0.01600
H167        H  0.32056035  0.25898583  0.02501702     0.14600
H168        H  0.33745893  0.14943804  0.09204988     0.14600
C169        C  0.39074279  0.18813578  0.09888263     0.36200
C170        C  0.27103257  0.21716819  0.50859290     0.36100
N171        N  0.41605948  0.18119585  0.11466750    -0.44100
N172        N  0.24877687  0.22299582  0.48635106    -0.44100
C173        C  0.26353839  0.44742256  0.27311087    -0.00500
C174        C  0.25167736  0.47550362  0.25137230    -0.12400
C175        C  0.25003267  0.47653696  0.20727734     0.01700
C176        C  0.26229637  0.44971566  0.18341142    -0.00600
C177        C  0.27182902  0.42102755  0.20562718    -0.12300
C178        C  0.27243741  0.41947086  0.24908095     0.01600
H179        H  0.24176340  0.99580459  0.26653089     0.14600
H180        H  0.27702955  0.39842949  0.18907064     0.14600
C181        C  0.28024862  0.38764014  0.26768053     0.36200
C182        C  0.23210358  0.00359103  0.18651367     0.36100
N183        N  0.28662306  0.36214236  0.28226316    -0.44100
N184        N  0.21627574  0.02473107  0.17190695    -0.44100
C185        C  0.40293150  0.29498404  0.17975780    -0.00500
C186        C  0.43254050  0.28466506  0.20065729    -0.12400
C187        C  0.43410757  0.28215128  0.24473130     0.01700
C188        C  0.40659593  0.29288345  0.26958415    -0.00600
C189        C  0.37688215  0.30210425  0.24839131    -0.12300
C190        C  0.37438107  0.30218634  0.20491920     0.01600
H191        H  0.45373828  0.27568575  0.18280001     0.14600
H192        H  0.35429932  0.30749879  0.26625348     0.14600
C193        C  0.34105812  0.30754246  0.18779336     0.36200
C194        C  0.46202356  0.26392851  0.26220297     0.36100
N195        N  0.31415832  0.31178788  0.17479620    -0.44100
N196        N  0.98413521  0.24853387  0.27549560    -0.44100
C197        C  0.36036619  0.34508923  0.39949235    -0.00500
C198        C  0.37249927  0.37726751  0.39266951    -0.12400
C199        C  0.35068769  0.40428764  0.39439697     0.01700
C200        C  0.31601914  0.39901371  0.40169322    -0.00600
C201        C  0.30548080  0.36807231  0.41681881    -0.12300
C202        C  0.32766046  0.34107357  0.41641900     0.01600
H203        H  0.39819306  0.38092820  0.38189227     0.14600
H204        H  0.27913638  0.36407256  0.42449347     0.14600
C205        C  0.31517721  0.30947454  0.43048607     0.36200
C206        C  0.36360917  0.43676227  0.38451522     0.36100
N207        N  0.30452684  0.28469331  0.44300232    -0.44100
N208        N  0.37386279  0.46284850  0.37673989    -0.44100
C209        C  0.08913024  0.28683239  0.27232510    -0.00500
C210        C  0.11886461  0.28035822  0.25016405    -0.12400
C211        C  0.12067670  0.28206810  0.20708051     0.01700
C212        C  0.09115415  0.28711390  0.18294862    -0.00600
C213        C  0.06108477  0.29466912  0.20457658    -0.12300
C214        C  0.06030051  0.29624739  0.24873895     0.01600
H215        H  0.14196648  0.27563889  0.26702065     0.14600
H216        H  0.03887464  0.30214192  0.18728303     0.14600
C217        C  0.03173462  0.31227496  0.26755075     0.36200
C218        C  0.15426138  0.28110297  0.18958733     0.36100
N219        N  0.50902887  0.32605946  0.28209831    -0.44100
N220        N  0.18164830  0.28069452  0.17718758    -0.44100
C221        C  0.15562364  0.33815988  0.38315517    -0.00500
C222        C  0.15325946  0.36481971  0.41087383    -0.12400
C223        C  0.17916392  0.38878657  0.41246798     0.01700
C224        C  0.20794520  0.38545277  0.38685214    -0.00600
C225        C  0.21192907  0.35666502  0.36376160    -0.12300
C226        C  0.18580403  0.33409091  0.36013057     0.01600
H227        H  0.13029192  0.36827114  0.42871464     0.14600
H228        H  0.23436693  0.35360796  0.34470377     0.14600
C229        C  0.19045094  0.30785377  0.33060130     0.36200
C230        C  0.17475804  0.41755305  0.43801976     0.36100
N231        N  0.19495279  0.28730333  0.30649536    -0.44100
N232        N  0.17142331  0.44060445  0.45864358    -0.44100
C233        C  0.23843258  0.12583816  0.26451228    -0.00500
C234        C  0.22969204  0.15516730  0.24321489    -0.12400
C235        C  0.22991035  0.15778634  0.19983820     0.01700
C236        C  0.23668077  0.12980040  0.17497839    -0.00600
C237        C  0.24674302  0.10060991  0.19586655    -0.12300
C238        C  0.24893193  0.09876825  0.23989191     0.01600
H239        H  0.22438213  0.17722642  0.26089460     0.14600
H240        H  0.25585893  0.07996265  0.17805689     0.14600
C241        C  0.26682164  0.07097954  0.25740243     0.36200
C242        C  0.22571119  0.19053865  0.18221792     0.36100
N243        N  0.28220142  0.04898869  0.27065041    -0.44100
N244        N  0.22277623  0.21683337  0.16828924    -0.44100
C245        C  0.18579416  0.17493758  0.39150691    -0.00500
C246        C  0.19766318  0.20509701  0.40598366    -0.12400
C247        C  0.17662380  0.23273756  0.40703214     0.01700
C248        C  0.14235438  0.22985399  0.39500701    -0.00600
C249        C  0.12931800  0.19799365  0.38854040    -0.12300
C250        C  0.15079032  0.17063373  0.38626580     0.01600
H251        H  0.22449708  0.20823851  0.41099884     0.14600
H252        H  0.10288728  0.19506061  0.38059917     0.14600
C253        C  0.13675283  0.13894375  0.37572422     0.36200
C254        C  0.19316933  0.26351982  0.41508439     0.36100
N255        N  0.12538702  0.11353880  0.36745666    -0.44100
N256        N  0.20968622  0.28635905  0.42189486    -0.44100
C257        C  0.29331499  0.18769728  0.37818071    -0.00500
C258        C  0.32234364  0.18244769  0.40268454    -0.12400
C259        C  0.34766835  0.20690745  0.40490914     0.01700
C260        C  0.34378295  0.23679975  0.38246294    -0.00600
C261        C  0.31309768  0.24318132  0.36217218    -0.12300
C262        C  0.28818646  0.21903427  0.35964182     0.01600
H263        H  0.32640761  0.15853480  0.41730375     0.14600
H264        H  0.30982261  0.26624896  0.34510732     0.14600
C265        C  0.25908011  0.22572064  0.33388613     0.36200
C266        C  0.37836213  0.20007862  0.42758918     0.36100
N267        N  0.23589668  0.23021401  0.31268832    -0.44100
N268        N  0.40299987  0.19491278  0.44590777    -0.44100
C269        C  0.24052706  0.12850142  0.81245529     0.86100
C270        C  0.26982562  0.15141585  0.82397200    -0.54100
C271        C  0.27175871  0.15950181  0.86511379     0.09000
C272        C  0.24453698  0.14271145  0.89221394     0.20000
C273        C  0.24499023  0.09802076  0.84101744    -0.54800
C274        C  0.24734436  0.10571569  0.88251080     0.09100
C275        C  0.20875186  0.14501194  0.83067056    -0.54400
C276        C  0.21077466  0.15261045  0.87207274     0.09700
H277        H  0.28639992  0.16246596  0.80060335     0.14200
H278        H  0.24621538  0.14874835  0.92597556     0.00000
H279        H  0.24359627  0.07268373  0.83093821     0.14500
H280        H  0.18715870  0.15200292  0.81163925     0.14300
C281        C  0.09344982  0.28766371  0.82004719     0.86100
C282        C  0.11307573  0.25718490  0.83600781    -0.54100
C283        C  0.12273581  0.25799222  0.87691396     0.09000
C284        C  0.11080998  0.28934428  0.89932928     0.20000
C285        C  0.06320046  0.28895435  0.84968908    -0.54800
C286        C  0.07207174  0.29009170  0.89097223     0.09100
C287        C  0.11512549  0.31734018  0.83191643    -0.54400
C288        C  0.12541118  0.31799930  0.87252919     0.09700
H289        H  0.11925890  0.23649714  0.81606108     0.14200
H290        H  0.11793916  0.29009512  0.93288635     0.00000
H291        H  0.03710079  0.28700697  0.84014454     0.14500
H292        H  0.12464917  0.33478288  0.80866621     0.14300
C293        C  0.40370024  0.29007822  0.81767340     0.86100
C294        C  0.38605386  0.32037924  0.83649948    -0.54100
C295        C  0.37828471  0.31773873  0.87807430     0.09000
C296        C  0.38940585  0.28474590  0.89784612     0.20000
C297        C  0.43503754  0.28607625  0.84576853    -0.54800
C298        C  0.42754757  0.28306635  0.88751204     0.09100
C299        C  0.38097932  0.26092506  0.82920530    -0.54400
C300        C  0.37277768  0.25817853  0.87044526     0.09700
H301        H  0.37980781  0.34223105  0.81811030     0.14200
H302        H  0.38341709  0.28249583  0.93170068     0.00000
H303        H  0.46081486  0.28859028  0.83505507     0.14500
H304        H  0.36986518  0.24504362  0.80571848     0.14300
C305        C  0.26133794  0.44445147  0.82098568     0.86100
C306        C  0.23234210  0.42139665  0.83271739    -0.54100
C307        C  0.22984049  0.41357164  0.87411583     0.09000
C308        C  0.25650595  0.43075921  0.90124069     0.20000
C309        C  0.25554350  0.47508117  0.84804436    -0.54800
C310        C  0.25328890  0.46782261  0.88998626     0.09100
C311        C  0.29311239  0.42895039  0.84038012    -0.54400
C312        C  0.29053794  0.42098649  0.88186463     0.09700
H313        H  0.21605849  0.41034328  0.80934295     0.14200
H314        H  0.25453163  0.42483093  0.93516627     0.00000
H315        H  0.25402556  0.99984930  0.83451634     0.14500
H316        H  0.31527105  0.42290239  0.82201383     0.14300
C317        C  0.23852658  0.13336364  0.62712180     0.86100
C318        C  0.20790798  0.15122965  0.60822066    -0.54100
C319        C  0.21094784  0.15946698  0.56692348     0.09000
C320        C  0.24394342  0.14676881  0.54692184     0.18600
C321        C  0.24171065  0.10245483  0.59994827    -0.54800
C322        C  0.24441740  0.10951725  0.55810960     0.09100
C323        C  0.26920350  0.15439938  0.61508386    -0.54400
C324        C  0.27264538  0.16132084  0.57345242     0.09700
H325        H  0.18686940  0.15979129  0.62699718     0.14200
H326        H  0.24605752  0.15205898  0.51287865     0.00000
H327        H  0.24080621  0.07729917  0.61173412     0.14500
H328        H  0.28705989  0.16318507  0.63824485     0.14300
C329        C  0.09395104  0.28970792  0.63525274     0.86100
C330        C  0.11227472  0.32158307  0.62315481    -0.54100
C331        C  0.11859792  0.32587128  0.58151078     0.09000
C332        C  0.10616762  0.29648879  0.55505996     0.20000
C333        C  0.06183604  0.28991211  0.60820724    -0.54800
C334        C  0.06847228  0.29332806  0.56631963     0.09100
C335        C  0.11495149  0.26172077  0.61647167    -0.54400
C336        C  0.12220915  0.26541735  0.57511471     0.09700
H337        H  0.12025144  0.33926703  0.64647789     0.14200
H338        H  0.11065656  0.29899984  0.52095998     0.00000
H339        H  0.03646520  0.28640732  0.62017215     0.14500
H340        H  0.12442976  0.24098059  0.63478192     0.14300
C341        C  0.39953349  0.29235268  0.63184240     0.86100
C342        C  0.37929355  0.26139947  0.62077120    -0.54100
C343        C  0.37322191  0.25740600  0.57911754     0.09000
C344        C  0.38720360  0.28551091  0.55165573     0.20000
C345        C  0.43161831  0.29020362  0.60474351    -0.54800
C346        C  0.42499312  0.28676555  0.56293933     0.09100
C347        C  0.38025457  0.32122811  0.61156688    -0.54400
C348        C  0.37252482  0.31715438  0.57032153     0.09700
H349        H  0.37001414  0.24417589  0.64438902     0.14200
H350        H  0.38200285  0.28272832  0.51772671     0.00000
H351        H  0.45712837  0.29264611  0.61654970     0.14500
H352        H  0.37098086  0.34216821  0.62907011     0.14300
C353        C  0.25807433  0.44635831  0.63575821     0.86100
C354        C  0.28497261  0.42411967  0.61581774    -0.54100
C355        C  0.27913360  0.41631735  0.57514803     0.09000
C356        C  0.24787892  0.43339501  0.55649358     0.20000
C357        C  0.25893100  0.47714352  0.60722435    -0.54800
C358        C  0.25322559  0.47019920  0.56599067     0.09100
C359        C  0.22429060  0.42952547  0.62631870    -0.54400
C360        C  0.21847902  0.42311675  0.58507627     0.09700
H361        H  0.30601236  0.41341939  0.63294593     0.14200
H362        H  0.24373949  0.42805421  0.52287320     0.00000
H363        H  0.26272247  0.00192604  0.61461729     0.14500
H364        H  0.20697117  0.42200480  0.65098050     0.14300
O365        O  0.03233240  0.26319423  0.52211141    -0.74800
O366        O  0.46671564  0.25802539  0.93450348    -0.74800
O367        O  0.03551858  0.26159019  0.93786760    -0.74900
O368        O  0.46420525  0.25978223  0.51898722    -0.74900
O369        O  0.46210812  0.31483853  0.51694339    -0.74900
O370        O  0.03231284  0.31654538  0.93463892    -0.74800
O371        O  0.46359143  0.31300868  0.93253267    -0.74800
O372        O  0.03031957  0.31823478  0.51876831    -0.74900
Ni373      Ni  0.49983030  0.25870744  0.97841863     1.25400
Ni374      Ni  0.49695716  0.31766344  0.97558904     1.25400
C375        C  0.04223577  0.29152699  0.53440344     0.87400
C376        C  0.45390837  0.28469730  0.91976535     0.87300
C377        C  0.04585479  0.28940802  0.92339731     0.87300
C378        C  0.45170028  0.28708380  0.53136173     0.87500
O379        O  0.21963019  0.06917921  0.92914795    -0.74800
O380        O  0.22057164  0.00377670  0.51625980    -0.74800
O381        O  0.21835661  0.07077418  0.51359598    -0.74900
O382        O  0.22136116  0.00244543  0.93188932    -0.74900
O383        O  0.27768214  0.00397345  0.93353278    -0.74900
O384        O  0.27465228  0.07325944  0.51406618    -0.74800
O385        O  0.27685812  0.00653602  0.51799727    -0.74800
O386        O  0.27599000  0.07067947  0.92985219    -0.74900
Ni387      Ni  0.21793420  0.03649344  0.97272902     1.25400
Ni388      Ni  0.27831389  0.03863526  0.97390643     1.25400
C389        C  0.24769101  0.08055387  0.91535684     0.87400
C390        C  0.25281254  0.49560126  0.53335305     0.87300
C391        C  0.24590992  0.08339082  0.52685941     0.87300
C392        C  0.25270771  0.49365702  0.92153082     0.87500
C393        C  0.29618543  0.38707833  0.55756331    -0.00500
C394        C  0.32513459  0.39136574  0.53273320    -0.12400
C395        C  0.34949861  0.36620465  0.53066087     0.01700
C396        C  0.34408910  0.33625087  0.55241230    -0.00600
C397        C  0.31253243  0.33016622  0.57064457    -0.12300
C398        C  0.28940472  0.35573913  0.57536263     0.01600
H399        H  0.33057657  0.41543319  0.51922639     0.14600
H400        H  0.30845350  0.30715751  0.58756888     0.14600
C401        C  0.26307189  0.35148712  0.60620559     0.36200
C402        C  0.38121763  0.37275569  0.01005906     0.36100
N403        N  0.24306603  0.34928550  0.63245461    -0.44100
N404        N  0.40665157  0.37793247  0.99345695    -0.44100
C405        C  0.13732561  0.35601515  0.56683605    -0.00500
C406        C  0.13127041  0.38579613  0.58769122    -0.12400
C407        C  0.15613996  0.41016886  0.58980598     0.01700
C408        C  0.18793719  0.40473718  0.57118718    -0.00600
C409        C  0.19135811  0.37824927  0.54352567    -0.12300
C410        C  0.16577365  0.35436284  0.54046143     0.01600
H411        H  0.10819731  0.38879323  0.60550331     0.14600
H412        H  0.21491689  0.37463927  0.52695972     0.14600
C413        C  0.17045614  0.32722274  0.51273321     0.36200
C414        C  0.14904589  0.43968627  0.61312182     0.36100
N415        N  0.17341409  0.30496594  0.99085713    -0.44100
N416        N  0.14352051  0.46332567  0.63188803    -0.44100
C417        C  0.14681650  0.24260663  0.55558607    -0.00500
C418        C  0.13552157  0.21226013  0.53992562    -0.12400
C419        C  0.15758530  0.18506853  0.53763749     0.01700
C420        C  0.19118594  0.18816542  0.55157269    -0.00600
C421        C  0.20292274  0.21920138  0.56337534    -0.12300
C422        C  0.18132738  0.24621722  0.56491991     0.01600
H423        H  0.10894882  0.20896991  0.53311778     0.14600
H424        H  0.22830653  0.22163692  0.57560072     0.14600
C425        C  0.19455600  0.27645326  0.58101981     0.36200
C426        C  0.14469355  0.15363110  0.52429055     0.36100
N427        N  0.20542560  0.30077264  0.59368388    -0.44100
N428        N  0.13445444  0.12842642  0.01333584    -0.44100
C429        C  0.35317752  0.22906562  0.56371768    -0.00500
C430        C  0.32454497  0.23480033  0.53893163    -0.12400
C431        C  0.29950314  0.21041935  0.53520870     0.01700
C432        C  0.30245428  0.18068443  0.55841620    -0.00600
C433        C  0.33384970  0.17310096  0.57652754    -0.12300
C434        C  0.35926749  0.19685292  0.57890331     0.01600
H435        H  0.32056037  0.25898593  0.52501714     0.14600
H436        H  0.33745901  0.14943809  0.59204976     0.14600
C437        C  0.39074286  0.18813586  0.59888273     0.36200
C438        C  0.27103252  0.21716815  0.00859295     0.36100
N439        N  0.41605951  0.18119594  0.61466769    -0.44100
N440        N  0.24877693  0.22299588  0.98635099    -0.44100
C441        C  0.26353839  0.44742257  0.77311092    -0.00500
C442        C  0.25167743  0.47550365  0.75137240    -0.12400
C443        C  0.25003273  0.47653701  0.70727746     0.01700
C444        C  0.26229632  0.44971568  0.68341149    -0.00600
C445        C  0.27182905  0.42102759  0.70562722    -0.12300
C446        C  0.27243745  0.41947088  0.74908097     0.01600
H447        H  0.24176350  0.99580455  0.76653081     0.14600
H448        H  0.27702960  0.39842953  0.68907064     0.14600
C449        C  0.28024869  0.38764016  0.76768051     0.36200
C450        C  0.23210368  0.00359106  0.68651362     0.36100
N451        N  0.28662316  0.36214237  0.78226312    -0.44100
N452        N  0.21627582  0.02473116  0.67190708    -0.44100
C453        C  0.40293146  0.29498411  0.67975781    -0.00500
C454        C  0.43254046  0.28466509  0.70065729    -0.12400
C455        C  0.43410755  0.28215132  0.74473132     0.01700
C456        C  0.40659592  0.29288355  0.76958416    -0.00600
C457        C  0.37688217  0.30210443  0.74839131    -0.12300
C458        C  0.37438106  0.30218649  0.70491921     0.01600
H459        H  0.45373819  0.27568570  0.68280003     0.14600
H460        H  0.35429933  0.30749906  0.76625350     0.14600
C461        C  0.34105813  0.30754272  0.68779337     0.36200
C462        C  0.46202350  0.26392850  0.76220302     0.36100
N463        N  0.31415832  0.31178824  0.67479630    -0.44100
N464        N  0.98413530  0.24853387  0.77549551    -0.44100
C465        C  0.36036619  0.34508927  0.89949239    -0.00500
C466        C  0.37249928  0.37726756  0.89266966    -0.12400
C467        C  0.35068768  0.40428770  0.89439710     0.01700
C468        C  0.31601912  0.39901373  0.90169324    -0.00600
C469        C  0.30548080  0.36807233  0.91681890    -0.12300
C470        C  0.32766047  0.34107359  0.91641906     0.01600
H471        H  0.39819308  0.38092827  0.88189251     0.14600
H472        H  0.27913640  0.36407259  0.92449357     0.14600
C473        C  0.31517717  0.30947449  0.93048602     0.36200
C474        C  0.36360920  0.43676234  0.88451540     0.36100
N475        N  0.30452674  0.28469327  0.94300214    -0.44100
N476        N  0.37386286  0.46284857  0.87674009    -0.44100
C477        C  0.08913016  0.28683225  0.77232507    -0.00500
C478        C  0.11886451  0.28035797  0.75016400    -0.12400
C479        C  0.12067660  0.28206776  0.70708045     0.01700
C480        C  0.09115406  0.28711371  0.68294856    -0.00600
C481        C  0.06108470  0.29466901  0.70457654    -0.12300
C482        C  0.06030045  0.29624736  0.74873890     0.01600
H483        H  0.14196639  0.27563866  0.76702060     0.14600
H484        H  0.03887452  0.30214179  0.68728297     0.14600
C485        C  0.03173459  0.31227501  0.76755069     0.36200
C486        C  0.15426130  0.28110262  0.68958726     0.36100
N487        N  0.50902880  0.32605941  0.78209843    -0.44100
N488        N  0.18164823  0.28069432  0.67718752    -0.44100
C489        C  0.15562361  0.33815989  0.88315495    -0.00500
C490        C  0.15325948  0.36481962  0.91087375    -0.12400
C491        C  0.17916390  0.38878650  0.91246789     0.01700
C492        C  0.20794518  0.38545274  0.88685204    -0.00600
C493        C  0.21192904  0.35666505  0.86376140    -0.12300
C494        C  0.18580398  0.33409099  0.86013028     0.01600
H495        H  0.13029197  0.36827099  0.92871465     0.14600
H496        H  0.23436691  0.35360800  0.84470357     0.14600
C497        C  0.19045090  0.30785384  0.83060108     0.36200
C498        C  0.17475800  0.41755298  0.93801962     0.36100
N499        N  0.19495266  0.28730336  0.80649521    -0.44100
N500        N  0.17142333  0.44060437  0.95864349    -0.44100
C501        C  0.23843261  0.12583816  0.76451229    -0.00500
C502        C  0.22969209  0.15516730  0.74321488    -0.12400
C503        C  0.22991046  0.15778634  0.69983819     0.01700
C504        C  0.23668087  0.12980040  0.67497841    -0.00600
C505        C  0.24674311  0.10060989  0.69586662    -0.12300
C506        C  0.24893196  0.09876821  0.73989199     0.01600
H507        H  0.22438218  0.17722639  0.76089456     0.14600
H508        H  0.25585906  0.07996262  0.67805701     0.14600
C509        C  0.26682169  0.07097950  0.75740257     0.36200
C510        C  0.22571145  0.19053866  0.68221792     0.36100
N511        N  0.28220153  0.04898869  0.77065061    -0.44100
N512        N  0.22277658  0.21683344  0.66828938    -0.44100
C513        C  0.18579422  0.17493765  0.89150683    -0.00500
C514        C  0.19766324  0.20509708  0.90598361    -0.12400
C515        C  0.17662382  0.23273761  0.90703215     0.01700
C516        C  0.14235441  0.22985401  0.89500703    -0.00600
C517        C  0.12931807  0.19799367  0.88854033    -0.12300
C518        C  0.15079040  0.17063375  0.88626572     0.01600
H519        H  0.22449713  0.20823860  0.91099878     0.14600
H520        H  0.10288736  0.19506064  0.88059919     0.14600
C521        C  0.13675291  0.13894369  0.87572434     0.36200
C522        C  0.19316933  0.26351989  0.91508433     0.36100
N523        N  0.12538713  0.11353870  0.86745690    -0.44100
N524        N  0.20968612  0.28635921  0.92189474    -0.44100
C525        C  0.29331497  0.18769726  0.87818083    -0.00500
C526        C  0.32234363  0.18244769  0.90268468    -0.12400
C527        C  0.34766835  0.20690748  0.90490924     0.01700
C528        C  0.34378292  0.23679974  0.88246295    -0.00600
C529        C  0.31309764  0.24318126  0.86217217    -0.12300
C530        C  0.28818642  0.21903423  0.85964191     0.01600
H531        H  0.32640761  0.15853481  0.91730393     0.14600
H532        H  0.30982255  0.26624884  0.84510722     0.14600
C533        C  0.25908011  0.22572061  0.83388617     0.36200
C534        C  0.37836214  0.20007871  0.92758929     0.36100
N535        N  0.23589669  0.23021410  0.81268838    -0.44100
N536        N  0.40299988  0.19491289  0.94590791    -0.44100
C537        C  0.24551810  0.63060634  0.31522589     0.86100
C538        C  0.27539935  0.65266815  0.32701312    -0.54100
C539        C  0.27717193  0.66088117  0.36807738     0.09000
C540        C  0.24951213  0.64476413  0.39506880     0.20000
C541        C  0.24890518  0.60005669  0.34396034    -0.54800
C542        C  0.25137064  0.60769204  0.38543436     0.09100
C543        C  0.21417563  0.64814676  0.33312820    -0.54400
C544        C  0.21620808  0.65548268  0.37469328     0.09700
H545        H  0.29228733  0.66345568  0.30378831     0.14200
H546        H  0.25121577  0.65081625  0.42882351     0.00000
H547        H  0.24679761  0.57473732  0.33411880     0.14500
H548        H  0.19278823  0.65555785  0.31399363     0.14300
C549        C  0.09396332  0.78021509  0.32007216     0.86100
C550        C  0.11296344  0.75079879  0.34001060    -0.54100
C551        C  0.12340482  0.75506161  0.38012770     0.09000
C552        C  0.11239069  0.78840153  0.39817865     0.20000
C553        C  0.06415219  0.78456883  0.34970987    -0.54800
C554        C  0.07360258  0.78899888  0.39043692     0.09100
C555        C  0.11625803  0.81029577  0.32719875    -0.54400
C556        C  0.12709469  0.81426532  0.36725908     0.09700
H557        H  0.11768288  0.72786953  0.32376947     0.14200
H558        H  0.12007037  0.79188455  0.43124786     0.00000
H559        H  0.03795392  0.78236085  0.34031486     0.14500
H560        H  0.12516562  0.82580684  0.30151772     0.14300
C561        C  0.40663116  0.79332402  0.31668613     0.86100
C562        C  0.38799343  0.82304311  0.33545316    -0.54100
C563        C  0.38042233  0.82017541  0.37705659     0.09000
C564        C  0.39255626  0.78760542  0.39684473     0.20000
C565        C  0.43810586  0.79037422  0.34478568    -0.54800
C566        C  0.43061567  0.78710397  0.38648074     0.09100
C567        C  0.38488049  0.76344482  0.32830969    -0.54400
C568        C  0.37688266  0.76052813  0.36958114     0.09700
H569        H  0.38107161  0.84469936  0.31706253     0.14200
H570        H  0.38666382  0.78518842  0.43071300     0.00000
H571        H  0.46385014  0.79341951  0.33419361     0.14500
H572        H  0.37417938  0.74721360  0.30491695     0.14300
C573        C  0.26278663  0.94463353  0.31831628     0.86100
C574        C  0.23457233  0.92023763  0.32807816    -0.54100
C575        C  0.23121826  0.91147795  0.36904831     0.09000
C576        C  0.25615860  0.92946340  0.39791667     0.20000
C577        C  0.25478103  0.97453493  0.34577959    -0.54800
C578        C  0.25155100  0.96655211  0.38742140     0.09100
C579        C  0.29460822  0.93023498  0.33872849    -0.54400
C580        C  0.29120814  0.92154086  0.37989428     0.09700
H581        H  0.21925602  0.90928519  0.30364528     0.14200
H582        H  0.25349777  0.92292606  0.43159204     0.00000
H583        H  0.25521569  0.50022912  0.33616816     0.14500
H584        H  0.31745605  0.92535885  0.32110889     0.14300
C585        C  0.24591599  0.63491292  0.12961375     0.86100
C586        C  0.21551245  0.65352146  0.11141036    -0.54100
C587        C  0.21779680  0.66095118  0.06974519     0.09000
C588        C  0.24997371  0.64748351  0.04901817     0.18600
C589        C  0.24786463  0.60371813  0.10269882    -0.54800
C590        C  0.25004064  0.61045474  0.06073748     0.09100
C591        C  0.27686024  0.65508386  0.11630195    -0.54400
C592        C  0.27931205  0.66180912  0.07448155     0.09700
H593        H  0.19529845  0.66308037  0.13080123     0.14200
H594        H  0.25154425  0.65249695  0.01486009     0.00000
H595        H  0.24681593  0.57863387  0.11466994     0.14500
H596        H  0.29533010  0.66382261  0.13873441     0.14300
C597        C  0.09337044  0.77974883  0.13612953     0.86100
C598        C  0.11476575  0.81080923  0.12846538    -0.54100
C599        C  0.12160469  0.81799093  0.08751540     0.09000
C600        C  0.10737644  0.79214949  0.05739799     0.20000
C601        C  0.06183442  0.78496118  0.10896160    -0.54800
C602        C  0.06935842  0.79115154  0.06773021     0.09100
C603        C  0.11138163  0.75159429  0.11345021    -0.54400
C604        C  0.12065570  0.75860245  0.07347122     0.09700
H605        H  0.12364502  0.82613457  0.15388558     0.14200
H606        H  0.11259966  0.79699384  0.02379927     0.00000
H607        H  0.03617814  0.78198742  0.12030211     0.14500
H608        H  0.11762261  0.72804789  0.12784213     0.14300
C609        C  0.40182547  0.79562489  0.13114588     0.86100
C610        C  0.38226858  0.76427030  0.12005888    -0.54100
C611        C  0.37619036  0.76031631  0.07842163     0.09000
C612        C  0.38936596  0.78873686  0.05103789     0.20000
C613        C  0.43384292  0.79418615  0.10385715    -0.54800
C614        C  0.42708607  0.79064222  0.06213930     0.09100
C615        C  0.38175557  0.82410361  0.11118751    -0.54400
C616        C  0.37404981  0.81997684  0.06995492     0.09700
H617        H  0.37354823  0.74669917  0.14359914     0.14200
H618        H  0.38410872  0.78588545  0.01712836     0.00000
H619        H  0.45939872  0.79673199  0.11543405     0.14500
H620        H  0.37191881  0.84467412  0.12893094     0.14300
C621        C  0.25819939  0.94655752  0.13396110     0.86100
C622        C  0.28495971  0.92491524  0.11279397    -0.54100
C623        C  0.27778944  0.91646283  0.07272017     0.09000
C624        C  0.24524346  0.93235771  0.05572805     0.20000
C625        C  0.25698584  0.97699224  0.10496427    -0.54800
C626        C  0.24979503  0.96945248  0.06429810     0.09100
C627        C  0.22464934  0.92863331  0.12699945    -0.54400
C628        C  0.21738539  0.92149429  0.08635774     0.09700
H629        H  0.30707847  0.91518162  0.12869829     0.14200
H630        H  0.23999784  0.92649455  0.02249674     0.00000
H631        H  0.26453910  0.50187978  0.11772558     0.14500
H632        H  0.20880026  0.92062252  0.15291496     0.14300
O633        O  0.03307998  0.76313956  0.02197896    -0.74800
O634        O  0.46807176  0.76076045  0.43391292    -0.74800
O635        O  0.03658453  0.76193268  0.43764255    -0.74900
O636        O  0.46510443  0.76236173  0.01821212    -0.74900
O637        O  0.46514169  0.81748075  0.01638595    -0.74900
O638        O  0.03598701  0.81701933  0.43516227    -0.74800
O639        O  0.46737421  0.81584633  0.43187961    -0.74800
O640        O  0.03331984  0.81824895  0.01940274    -0.74900
Ni641      Ni  0.50078271  0.76009368  0.47798383     1.25400
Ni642      Ni  0.50038568  0.81916371  0.47559938     1.25400
C643        C  0.04381092  0.79095090  0.03499203     0.87400
C644        C  0.45671076  0.78791715  0.41891426     0.87300
C645        C  0.04801455  0.78939653  0.42337031     0.87300
C646        C  0.45367754  0.79009062  0.03061779     0.87500
O647        O  0.22355406  0.57132466  0.43230100    -0.74800
O648        O  0.22445585  0.50538861  0.01873865    -0.74800
O649        O  0.22312062  0.57222550  0.01668439    -0.74900
O650        O  0.22434144  0.50453115  0.43441040    -0.74900
O651        O  0.28069706  0.50509257  0.43522529    -0.74900
O652        O  0.27946174  0.57397343  0.01632859    -0.74800
O653        O  0.28079217  0.50723674  0.01980170    -0.74800
O654        O  0.27992978  0.57191539  0.43207157    -0.74900
Ni655      Ni  0.22184520  0.53834136  0.47554980     1.25400
Ni656      Ni  0.28226559  0.53955705  0.47585155     1.25400
C657        C  0.25163837  0.58239256  0.41819018     0.87400
C658        C  0.24898092  0.99448406  0.03124421     0.87300
C659        C  0.25096398  0.58433420  0.02964986     0.87300
C660        C  0.25005144  0.99205170  0.41941438     0.87500
C661        C  0.29540485  0.88767342  0.05480189    -0.00500
C662        C  0.32488515  0.89288987  0.03120638    -0.12400
C663        C  0.35022611  0.86862520  0.03034078     0.01700
C664        C  0.34533992  0.83857182  0.05198786    -0.00600
C665        C  0.31367261  0.83149478  0.06926818    -0.12300
C666        C  0.28936610  0.85615427  0.07256691     0.01600
H667        H  0.32990002  0.91714359  0.01798822     0.14600
H668        H  0.31006339  0.80844052  0.08626377     0.14600
C669        C  0.26229150  0.85088511  0.10210658     0.36200
C670        C  0.38239151  0.87632155  0.51150981     0.36100
N671        N  0.24152141  0.84768739  0.12723271    -0.44100
N672        N  0.40830434  0.88228594  0.49655408    -0.44100
C673        C  0.14080225  0.84843626  0.07554538    -0.00500
C674        C  0.13387906  0.87763236  0.09719539    -0.12400
C675        C  0.15666578  0.90395401  0.09660594     0.01700
C676        C  0.18766239  0.90085687  0.07522632    -0.00600
C677        C  0.19198932  0.87414670  0.04820719    -0.12300
C678        C  0.16854172  0.84820341  0.04778677     0.01600
H679        H  0.11140609  0.87921859  0.11643933     0.14600
H680        H  0.21502643  0.87201047  0.03014637     0.14600
C681        C  0.17534969  0.82054103  0.02149946     0.36200
C682        C  0.14818851  0.93344059  0.11926699     0.36100
N683        N  0.18065405  0.79804575  0.50068413    -0.44100
N684        N  0.14151810  0.95713567  0.13734385    -0.44100
C685        C  0.14908033  0.73956051  0.05575782    -0.00500
C686        C  0.14223907  0.71015924  0.03446323    -0.12400
C687        C  0.16633309  0.68467232  0.03350778     0.01700
C688        C  0.19770823  0.68899542  0.05343297    -0.00600
C689        C  0.20589909  0.71986853  0.06955984    -0.12300
C690        C  0.18185176  0.74470971  0.07181590     0.01600
H691        H  0.11703386  0.70575038  0.02261089     0.14600
H692        H  0.22993300  0.72314402  0.08520582     0.14600
C693        C  0.18991675  0.77278779  0.09717496     0.36200
C694        C  0.15727008  0.65341299  0.01559168     0.36100
N695        N  0.19634789  0.79470305  0.11856048    -0.44100
N696        N  0.14993089  0.62839223  0.50107865    -0.44100
C697        C  0.35718437  0.73150666  0.06283810    -0.00500
C698        C  0.32803225  0.73658114  0.03882088    -0.12400
C699        C  0.30363970  0.71159124  0.03571403     0.01700
C700        C  0.30814709  0.68172805  0.05824433    -0.00600
C701        C  0.34009118  0.67487381  0.07520027    -0.12300
C702        C  0.36462435  0.69943941  0.07751855     0.01600
H703        H  0.32299080  0.76078048  0.02548789     0.14600
H704        H  0.34467287  0.65124528  0.09040280     0.14600
C705        C  0.39633243  0.69182906  0.09764673     0.36200
C706        C  0.27394063  0.71810024  0.51110340     0.36100
N707        N  0.42176464  0.68587038  0.11377339    -0.44100
N708        N  0.25072428  0.72379747  0.49036741    -0.44100
C709        C  0.26606578  0.94827285  0.27070464    -0.00500
C710        C  0.25311859  0.97596291  0.24919094    -0.12400
C711        C  0.25115762  0.97698691  0.20518066     0.01700
C712        C  0.26406468  0.95057167  0.18114322    -0.00600
C713        C  0.27537334  0.92241337  0.20315197    -0.12300
C714        C  0.27646416  0.92087551  0.24654262     0.01600
H715        H  0.24107481  0.49580151  0.26859629     0.14600
H716        H  0.28129596  0.89998934  0.18658591     0.14600
C717        C  0.28595319  0.88938488  0.26491364     0.36200
C718        C  0.23196051  0.50367493  0.18830958     0.36100
N719        N  0.29367385  0.86417742  0.27930387    -0.44100
N720        N  0.21687061  0.52525471  0.17351501    -0.44100
C721        C  0.40527899  0.79818697  0.17897472    -0.00500
C722        C  0.43553776  0.78961059  0.19967304    -0.12400
C723        C  0.43738180  0.78719340  0.24369840     0.01700
C724        C  0.40928793  0.79621111  0.26864538    -0.00600
C725        C  0.37904704  0.80391006  0.24763662    -0.12300
C726        C  0.37643790  0.80392669  0.20421123     0.01600
H727        H  0.45721493  0.78188155  0.18176843     0.14600
H728        H  0.35626518  0.80817265  0.26562736     0.14600
C729        C  0.34286527  0.80774649  0.18713045     0.36200
C730        C  0.46638138  0.77057712  0.26097688     0.36100
N731        N  0.31580023  0.81071740  0.17408936    -0.44100
N732        N  0.98931727  0.75627616  0.27415647    -0.44100
C733        C  0.36219617  0.84710245  0.39870760    -0.00500
C734        C  0.37388199  0.87941372  0.39196726    -0.12400
C735        C  0.35161554  0.90605226  0.39323416     0.01700
C736        C  0.31696908  0.90019975  0.40023361    -0.00600
C737        C  0.30689079  0.86915967  0.41555754    -0.12300
C738        C  0.32952729  0.84254883  0.41544198     0.01600
H739        H  0.39954680  0.88341808  0.38125623     0.14600
H740        H  0.28058212  0.86470827  0.42303085     0.14600
C741        C  0.31762489  0.81076373  0.42963056     0.36200
C742        C  0.36405395  0.93854311  0.38244685     0.36100
N743        N  0.30749593  0.78581617  0.44228979    -0.44100
N744        N  0.37392796  0.96456462  0.37359585    -0.44100
C745        C  0.08802041  0.77584005  0.27305511    -0.00500
C746        C  0.11434222  0.76084562  0.25094666    -0.12400
C747        C  0.11566548  0.76042285  0.20776514     0.01700
C748        C  0.08910004  0.77416580  0.18339354    -0.00600
C749        C  0.06327126  0.79082024  0.20513984    -0.12300
C750        C  0.06326715  0.79286824  0.24922389     0.01600
H751        H  0.13637683  0.75170561  0.26732701     0.14600
H752        H  0.04458679  0.80473429  0.18768084     0.14600
C753        C  0.04026763  0.81580453  0.26828469     0.36200
C754        C  0.14684499  0.74797425  0.19091973     0.36100
N755        N  0.52201534  0.83462525  0.28342014    -0.44100
N756        N  0.17193599  0.73715114  0.17885444    -0.44100
C757        C  0.15684931  0.83574922  0.37540013    -0.00500
C758        C  0.15554843  0.86091560  0.40538044    -0.12400
C759        C  0.18149269  0.88478598  0.40749896     0.01700
C760        C  0.20925390  0.88288340  0.37996859    -0.00600
C761        C  0.21235235  0.85527098  0.35431626    -0.12300
C762        C  0.18623829  0.83267549  0.35054416     0.01600
H763        H  0.13345759  0.86313832  0.42514510     0.14600
H764        H  0.23420760  0.85299679  0.33408428     0.14600
C765        C  0.19017968  0.80706976  0.31981351     0.36200
C766        C  0.17828352  0.91181417  0.43618313     0.36100
N767        N  0.19315586  0.78711637  0.29449603    -0.44100
N768        N  0.17593321  0.93338846  0.45940986    -0.44100
C769        C  0.24389898  0.62791171  0.26719860    -0.00500
C770        C  0.23777910  0.65774617  0.24557955    -0.12400
C771        C  0.23973452  0.66032016  0.20220964     0.01700
C772        C  0.24438760  0.63180500  0.17758015    -0.00600
C773        C  0.25118385  0.60188868  0.19880199    -0.12300
C774        C  0.25264522  0.60006237  0.24286317     0.01600
H775        H  0.23377255  0.68014714  0.26312549     0.14600
H776        H  0.25837474  0.58035507  0.18135699     0.14600
C777        C  0.26817155  0.57107857  0.26069454     0.36200
C778        C  0.24053148  0.69329697  0.18453587     0.36100
N779        N  0.28176865  0.54807497  0.27418852    -0.44100
N780        N  0.24247326  0.71976652  0.17084545    -0.44100
C781        C  0.19083180  0.67677058  0.39510390    -0.00500
C782        C  0.20138484  0.70770630  0.40866927    -0.12400
C783        C  0.17870994  0.73409892  0.41024432     0.01700
C784        C  0.14430518  0.72890040  0.40052735    -0.00600
C785        C  0.13297451  0.69615886  0.39632297    -0.12300
C786        C  0.15604234  0.67024298  0.39233808     0.01600
H787        H  0.22810755  0.71241184  0.41235804     0.14600
H788        H  0.10648741  0.69151804  0.39018109     0.14600
C789        C  0.14373277  0.63783077  0.38202943     0.36200
C790        C  0.19320721  0.76623201  0.41583381     0.36100
N791        N  0.13386078  0.61183627  0.37378004    -0.44100
N792        N  0.20739808  0.79081433  0.42072263    -0.44100
C793        C  0.29832689  0.68935539  0.38060465    -0.00500
C794        C  0.32812842  0.68428821  0.40359523    -0.12400
C795        C  0.35331760  0.70885612  0.40448520     0.01700
C796        C  0.34857160  0.73858615  0.38198105    -0.00600
C797        C  0.31736512  0.74470793  0.36288180    -0.12300
C798        C  0.29237881  0.72058286  0.36211215     0.01600
H799        H  0.33281271  0.66040986  0.41801897     0.14600
H800        H  0.31346365  0.76770548  0.34586873     0.14600
C801        C  0.26200593  0.72741914  0.33871723     0.36200
C802        C  0.38470212  0.70217256  0.42571359     0.36100
N803        N  0.23762519  0.73254305  0.31992101    -0.44100
N804        N  0.40985671  0.69694250  0.44287804    -0.44100
C805        C  0.24551805  0.63060632  0.81522588     0.86100
C806        C  0.27539929  0.65266815  0.82701306    -0.54100
C807        C  0.27717193  0.66088115  0.86807731     0.09000
C808        C  0.24951216  0.64476413  0.89506878     0.20000
C809        C  0.24890511  0.60005668  0.84396033    -0.54800
C810        C  0.25137068  0.60769201  0.88543433     0.09100
C811        C  0.21417557  0.64814672  0.83312821    -0.54400
C812        C  0.21620808  0.65548270  0.87469328     0.09700
H813        H  0.29228721  0.66345569  0.80378826     0.14200
H814        H  0.25121586  0.65081630  0.92882346     0.00000
H815        H  0.24679745  0.57473730  0.83411879     0.14500
H816        H  0.19278814  0.65555771  0.81399367     0.14300
C817        C  0.09396325  0.78021510  0.82007225     0.86100
C818        C  0.11296340  0.75079881  0.84001070    -0.54100
C819        C  0.12340483  0.75506168  0.88012778     0.09000
C820        C  0.11239065  0.78840158  0.89817871     0.20000
C821        C  0.06415214  0.78456884  0.84970997    -0.54800
C822        C  0.07360253  0.78899888  0.89043702     0.09100
C823        C  0.11625795  0.81029580  0.82719881    -0.54400
C824        C  0.12709461  0.81426538  0.86725913     0.09700
H825        H  0.11768281  0.72786956  0.82376965     0.14200
H826        H  0.12007035  0.79188461  0.93124791     0.00000
H827        H  0.03795385  0.78236088  0.84031491     0.14500
H828        H  0.12516553  0.82580685  0.80151777     0.14300
C829        C  0.40663111  0.79332402  0.81668614     0.86100
C830        C  0.38799331  0.82304306  0.83545319    -0.54100
C831        C  0.38042230  0.82017537  0.87705665     0.09000
C832        C  0.39255629  0.78760540  0.89684477     0.20000
C833        C  0.43810584  0.79037427  0.84478568    -0.54800
C834        C  0.43061569  0.78710401  0.88648072     0.09100
C835        C  0.38488047  0.76344481  0.82830973    -0.54400
C836        C  0.37688266  0.76052811  0.86958118     0.09700
H837        H  0.38107139  0.84469927  0.81706252     0.14200
H838        H  0.38666390  0.78518845  0.93071304     0.00000
H839        H  0.46385015  0.79341961  0.83419360     0.14500
H840        H  0.37417929  0.74721364  0.80491700     0.14300
C841        C  0.26278667  0.94463346  0.81831625     0.86100
C842        C  0.23457235  0.92023761  0.82807815    -0.54100
C843        C  0.23121830  0.91147791  0.86904830     0.09000
C844        C  0.25615865  0.92946331  0.89791669     0.20000
C845        C  0.25478111  0.97453485  0.84577960    -0.54800
C846        C  0.25155110  0.96655203  0.88742141     0.09100
C847        C  0.29460824  0.93023485  0.83872846    -0.54400
C848        C  0.29120814  0.92154073  0.87989425     0.09700
H849        H  0.21925597  0.90928519  0.80364528     0.14200
H850        H  0.25349783  0.92292597  0.93159207     0.00000
H851        H  0.25521560  0.50022913  0.83616824     0.14500
H852        H  0.31745606  0.92535868  0.82110888     0.14300
C853        C  0.24591589  0.63491290  0.62961377     0.86100
C854        C  0.21551236  0.65352143  0.61141043    -0.54100
C855        C  0.21779667  0.66095113  0.56974526     0.09000
C856        C  0.24997362  0.64748351  0.54901821     0.18600
C857        C  0.24786453  0.60371811  0.60269883    -0.54800
C858        C  0.25004052  0.61045475  0.56073750     0.09100
C859        C  0.27686013  0.65508387  0.61630200    -0.54400
C860        C  0.27931198  0.66180912  0.57448159     0.09700
H861        H  0.19529839  0.66308036  0.63080136     0.14200
H862        H  0.25154416  0.65249694  0.51486011     0.00000
H863        H  0.24681575  0.57863385  0.61466989     0.14500
H864        H  0.29532995  0.66382267  0.63873450     0.14300
C865        C  0.09337029  0.77974888  0.63612960     0.86100
C866        C  0.11476558  0.81080929  0.62846546    -0.54100
C867        C  0.12160458  0.81799099  0.58751547     0.09000
C868        C  0.10737637  0.79214952  0.55739806     0.20000
C869        C  0.06183427  0.78496122  0.60896162    -0.54800
C870        C  0.06935834  0.79115155  0.56773022     0.09100
C871        C  0.11138148  0.75159434  0.61345033    -0.54400
C872        C  0.12065562  0.75860250  0.57347136     0.09700
H873        H  0.12364486  0.82613458  0.65388568     0.14200
H874        H  0.11259967  0.79699387  0.52379936     0.00000
H875        H  0.03617800  0.78198750  0.62030207     0.14500
H876        H  0.11762244  0.72804797  0.62784232     0.14300
C877        C  0.40182546  0.79562485  0.63114588     0.86100
C878        C  0.38226864  0.76427023  0.62005887    -0.54100
C879        C  0.37619044  0.76031626  0.57842158     0.09000
C880        C  0.38936600  0.78873684  0.55103789     0.20000
C881        C  0.43384292  0.79418620  0.60385718    -0.54800
C882        C  0.42708608  0.79064223  0.56213934     0.09100
C883        C  0.38175547  0.82410351  0.61118753    -0.54400
C884        C  0.37404975  0.81997677  0.56995492     0.09700
H885        H  0.37354826  0.74669914  0.64359909     0.14200
H886        H  0.38410881  0.78588543  0.51712832     0.00000
H887        H  0.45939869  0.79673207  0.61543407     0.14500
H888        H  0.37191865  0.84467400  0.62893101     0.14300
C889        C  0.25819949  0.94655753  0.63396104     0.86100
C890        C  0.28495977  0.92491519  0.61279390    -0.54100
C891        C  0.27778948  0.91646279  0.57272010     0.09000
C892        C  0.24524350  0.93235766  0.55572801     0.20000
C893        C  0.25698594  0.97699223  0.60496415    -0.54800
C894        C  0.24979512  0.96945244  0.56429799     0.09100
C895        C  0.22464942  0.92863336  0.62699945    -0.54400
C896        C  0.21738545  0.92149429  0.58635777     0.09700
H897        H  0.30707850  0.91518150  0.62869824     0.14200
H898        H  0.23999784  0.92649444  0.52249676     0.00000
H899        H  0.26453890  0.50187982  0.61772560     0.14500
H900        H  0.20880034  0.92062262  0.65291501     0.14300
O901        O  0.03308008  0.76313956  0.52197879    -0.74800
O902        O  0.46807173  0.76076048  0.93391296    -0.74800
O903        O  0.03658457  0.76193264  0.93764276    -0.74900
O904        O  0.46510435  0.76236168  0.51821208    -0.74900
O905        O  0.46514176  0.81748068  0.51638613    -0.74900
O906        O  0.03598693  0.81701931  0.93516238    -0.74800
O907        O  0.46737431  0.81584636  0.93187947    -0.74800
O908        O  0.03331992  0.81824894  0.51940262    -0.74900
Ni909      Ni  0.50078274  0.76009370  0.97798381     1.25400
Ni910      Ni  0.50038571  0.81916373  0.97559927     1.25400
C911        C  0.04381096  0.79095089  0.53499195     0.87400
C912        C  0.45671081  0.78791719  0.91891421     0.87300
C913        C  0.04801451  0.78939651  0.92337045     0.87300
C914        C  0.45367756  0.79009057  0.53061787     0.87500
O915        O  0.22355414  0.57132460  0.93230096    -0.74800
O916        O  0.22445588  0.50538852  0.51873852    -0.74800
O917        O  0.22312049  0.57222545  0.51668448    -0.74900
O918        O  0.22434145  0.50453106  0.93441047    -0.74900
O919        O  0.28069707  0.50509254  0.93522512    -0.74900
O920        O  0.27946161  0.57397349  0.51632864    -0.74800
O921        O  0.28079219  0.50723682  0.51980188    -0.74800
O922        O  0.27992986  0.57191529  0.93207144    -0.74900
Ni923      Ni  0.22184524  0.53834136  0.97554980     1.25400
Ni924      Ni  0.28226564  0.53955699  0.97585143     1.25400
C925        C  0.25163843  0.58239251  0.91819012     0.87400
C926        C  0.24898096  0.99448399  0.53124409     0.87300
C927        C  0.25096384  0.58433422  0.52964990     0.87300
C928        C  0.25005150  0.99205164  0.91941437     0.87500
C929        C  0.29540483  0.88767336  0.55480177    -0.00500
C930        C  0.32488512  0.89288978  0.53120625    -0.12400
C931        C  0.35022607  0.86862509  0.53034065     0.01700
C932        C  0.34533986  0.83857174  0.55198779    -0.00600
C933        C  0.31367254  0.83149472  0.56926813    -0.12300
C934        C  0.28936603  0.85615423  0.57256679     0.01600
H935        H  0.32990001  0.91714351  0.51798814     0.14600
H936        H  0.31006332  0.80844053  0.58626375     0.14600
C937        C  0.26229146  0.85088514  0.60210652     0.36200
C938        C  0.38239155  0.87632162  0.01150984     0.36100
N939        N  0.24152147  0.84768747  0.62723282    -0.44100
N940        N  0.40830434  0.88228598  0.99655401    -0.44100
C941        C  0.14080226  0.84843627  0.57554550    -0.00500
C942        C  0.13387912  0.87763237  0.59719555    -0.12400
C943        C  0.15666585  0.90395400  0.59660611     0.01700
C944        C  0.18766243  0.90085687  0.57522643    -0.00600
C945        C  0.19198934  0.87414671  0.54820727    -0.12300
C946        C  0.16854174  0.84820341  0.54778688     0.01600
H947        H  0.11140616  0.87921861  0.61643950     0.14600
H948        H  0.21502642  0.87201051  0.53014637     0.14600
C949        C  0.17534964  0.82054108  0.52149944     0.36200
C950        C  0.14818861  0.93344057  0.61926720     0.36100
N951        N  0.18065421  0.79804567  0.00068425    -0.44100
N952        N  0.14151819  0.95713567  0.63734402    -0.44100
C953        C  0.14908023  0.73956053  0.55575799    -0.00500
C954        C  0.14223893  0.71015928  0.53446340    -0.12400
C955        C  0.16633292  0.68467233  0.53350796     0.01700
C956        C  0.19770808  0.68899538  0.55343313    -0.00600
C957        C  0.20589897  0.71986847  0.56956000    -0.12300
C958        C  0.18185169  0.74470970  0.57181602     0.01600
H959        H  0.11703372  0.70575048  0.52261097     0.14600
H960        H  0.22993291  0.72314392  0.58520594     0.14600
C961        C  0.18991678  0.77278785  0.59717489     0.36200
C962        C  0.15726989  0.65341304  0.51559184     0.36100
N963        N  0.19634798  0.79470314  0.61856034    -0.44100
N964        N  0.14993108  0.62839218  0.00107848    -0.44100
C965        C  0.35718437  0.73150664  0.56283808    -0.00500
C966        C  0.32803218  0.73658116  0.53882096    -0.12400
C967        C  0.30363964  0.71159123  0.53571409     0.01700
C968        C  0.30814704  0.68172804  0.55824437    -0.00600
C969        C  0.34009112  0.67487384  0.57520037    -0.12300
C970        C  0.36462432  0.69943942  0.57751856     0.01600
H971        H  0.32299071  0.76078050  0.52548807     0.14600
H972        H  0.34467281  0.65124536  0.59040295     0.14600
C973        C  0.39633242  0.69182898  0.59764666     0.36200
C974        C  0.27394074  0.71810028  0.01110337     0.36100
N975        N  0.42176461  0.68587018  0.61377331    -0.44100
N976        N  0.25072433  0.72379758  0.99036748    -0.44100
C977        C  0.26606579  0.94827279  0.77070460    -0.00500
C978        C  0.25311866  0.97596289  0.74919089    -0.12400
C979        C  0.25115771  0.97698690  0.70518059     0.01700
C980        C  0.26406477  0.95057168  0.68114316    -0.00600
C981        C  0.27537338  0.92241333  0.70315193    -0.12300
C982        C  0.27646413  0.92087546  0.74654259     0.01600
H983        H  0.24107490  0.49580155  0.76859645     0.14600
H984        H  0.28129605  0.89998935  0.68658590     0.14600
C985        C  0.28595321  0.88938482  0.76491359     0.36200
C986        C  0.23196058  0.50367497  0.68830972     0.36100
N987        N  0.29367393  0.86417735  0.77930372    -0.44100
N988        N  0.21687065  0.52525463  0.67351491    -0.44100
C989        C  0.40527902  0.79818691  0.67897471    -0.00500
C990        C  0.43553777  0.78961048  0.69967304    -0.12400
C991        C  0.43738178  0.78719328  0.74369843     0.01700
C992        C  0.40928790  0.79621107  0.76864537    -0.00600
C993        C  0.37904706  0.80391007  0.74763656    -0.12300
C994        C  0.37643794  0.80392666  0.70421118     0.01600
H995        H  0.45721492  0.78188137  0.68176846     0.14600
H996        H  0.35626520  0.80817275  0.76562725     0.14600
C997        C  0.34286532  0.80774651  0.68713043     0.36200
C998        C  0.46638132  0.77057697  0.76097698     0.36100
N999        N  0.31580025  0.81071750  0.67408948    -0.44100
N1000       N  0.98931723  0.75627610  0.77415655    -0.44100
C1001       C  0.36219616  0.84710237  0.89870776    -0.00500
C1002       C  0.37388198  0.87941364  0.89196743    -0.12400
C1003       C  0.35161550  0.90605214  0.89323408     0.01700
C1004       C  0.31696906  0.90019963  0.90023359    -0.00600
C1005       C  0.30689077  0.86915960  0.91555769    -0.12300
C1006       C  0.32952726  0.84254874  0.91544210     0.01600
H1007       H  0.39954684  0.88341798  0.88125645     0.14600
H1008       H  0.28058215  0.86470824  0.92303106     0.14600
C1009       C  0.31762475  0.81076360  0.92963050     0.36200
C1010       C  0.36405389  0.93854298  0.88244671     0.36100
N1011       N  0.30749575  0.78581603  0.94228964    -0.44100
N1012       N  0.37392799  0.96456445  0.87359572    -0.44100
C1013       C  0.08802032  0.77584003  0.77305519    -0.00500
C1014       C  0.11434218  0.76084564  0.75094674    -0.12400
C1015       C  0.11566547  0.76042294  0.70776521     0.01700
C1016       C  0.08909996  0.77416582  0.68339363    -0.00600
C1017       C  0.06327112  0.79082017  0.70513995    -0.12300
C1018       C  0.06326705  0.79286822  0.74922399     0.01600
H1019       H  0.13637676  0.75170566  0.76732711     0.14600
H1020       H  0.04458660  0.80473415  0.68768096     0.14600
C1021       C  0.04026751  0.81580451  0.76828482     0.36200
C1022       C  0.14684501  0.74797435  0.69091978     0.36100
N1023       N  0.52201521  0.83462504  0.78342031    -0.44100
N1024       N  0.17193598  0.73715125  0.67885439    -0.44100
C1025       C  0.15684928  0.83574927  0.87540014    -0.00500
C1026       C  0.15554844  0.86091568  0.90538044    -0.12400
C1027       C  0.18149271  0.88478605  0.90749890     0.01700
C1028       C  0.20925391  0.88288342  0.87996858    -0.00600
C1029       C  0.21235233  0.85527100  0.85431623    -0.12300
C1030       C  0.18623822  0.83267556  0.85054409     0.01600
H1031       H  0.13345764  0.86313846  0.92514515     0.14600
H1032       H  0.23420758  0.85299676  0.83408433     0.14600
C1033       C  0.19017965  0.80706985  0.81981343     0.36200
C1034       C  0.17828352  0.91181427  0.93618303     0.36100
N1035       N  0.19315594  0.78711648  0.79449593    -0.44100
N1036       N  0.17593307  0.93338855  0.95940974    -0.44100
C1037       C  0.24389894  0.62791169  0.76719861    -0.00500
C1038       C  0.23777910  0.65774615  0.74557957    -0.12400
C1039       C  0.23973443  0.66032010  0.70220965     0.01700
C1040       C  0.24438745  0.63180496  0.67758015    -0.00600
C1041       C  0.25118371  0.60188863  0.69880197    -0.12300
C1042       C  0.25264513  0.60006236  0.74286317     0.01600
H1043       H  0.23377262  0.68014713  0.76312549     0.14600
H1044       H  0.25837462  0.58035507  0.68135702     0.14600
C1045       C  0.26817158  0.57107862  0.76069449     0.36200
C1046       C  0.24053144  0.69329692  0.68453593     0.36100
N1047       N  0.28176875  0.54807504  0.77418840    -0.44100
N1048       N  0.24247314  0.71976651  0.67084566    -0.44100
C1049       C  0.19083181  0.67677061  0.89510393    -0.00500
C1050       C  0.20138486  0.70770634  0.90866926    -0.12400
C1051       C  0.17870996  0.73409895  0.91024444     0.01700
C1052       C  0.14430520  0.72890046  0.90052741    -0.00600
C1053       C  0.13297453  0.69615893  0.89632297    -0.12300
C1054       C  0.15604232  0.67024303  0.89233817     0.01600
H1055       H  0.22810758  0.71241192  0.91235795     0.14600
H1056       H  0.10648739  0.69151813  0.89018102     0.14600
C1057       C  0.14373269  0.63783084  0.88202969     0.36200
C1058       C  0.19320724  0.76623204  0.91583391     0.36100
N1059       N  0.13386059  0.61183633  0.87378050    -0.44100
N1060       N  0.20739813  0.79081438  0.92072255    -0.44100
C1061       C  0.29832694  0.68935534  0.88060452    -0.00500
C1062       C  0.32812847  0.68428816  0.90359511    -0.12400
C1063       C  0.35331761  0.70885610  0.90448520     0.01700
C1064       C  0.34857158  0.73858614  0.88198106    -0.00600
C1065       C  0.31736507  0.74470794  0.86288186    -0.12300
C1066       C  0.29237880  0.72058283  0.86211207     0.01600
H1067       H  0.33281278  0.66040980  0.91801884     0.14600
H1068       H  0.31346352  0.76770558  0.84586893     0.14600
C1069       C  0.26200586  0.72741910  0.83871722     0.36200
C1070       C  0.38470212  0.70217256  0.92571363     0.36100
N1071       N  0.23762503  0.73254309  0.81992118    -0.44100
N1072       N  0.40985675  0.69694239  0.94287795    -0.44100
C1073       C  0.74045412  0.12857193  0.31245763     0.86100
C1074       C  0.76976311  0.15147918  0.32395538    -0.54100
C1075       C  0.77171704  0.15956311  0.36509687     0.09000
C1076       C  0.74450221  0.14277930  0.39221442     0.20000
C1077       C  0.74492065  0.09808931  0.34101646    -0.54800
C1078       C  0.74729642  0.10578246  0.38250899     0.09100
C1079       C  0.70869120  0.14508922  0.33069473    -0.54400
C1080       C  0.71073346  0.15268797  0.37209527     0.09700
H1081       H  0.78632702  0.16252881  0.30057500     0.14200
H1082       H  0.74619700  0.14881527  0.42597506     0.00000
H1083       H  0.74351720  0.07275309  0.33093434     0.14500
H1084       H  0.68709126  0.15208475  0.31167819     0.14300
C1085       C  0.59349667  0.28781992  0.32008880     0.86100
C1086       C  0.61311568  0.25733315  0.33603732    -0.54100
C1087       C  0.62276972  0.25812559  0.37694676     0.09000
C1088       C  0.61085102  0.28947411  0.39937493     0.20000
C1089       C  0.56324538  0.28910895  0.34973009    -0.54800
C1090       C  0.57211329  0.29023215  0.39101539     0.09100
C1091       C  0.61517781  0.31748828  0.33197447    -0.54400
C1092       C  0.62546174  0.31813363  0.37258852     0.09700
H1093       H  0.61929641  0.23665037  0.31608115     0.14200
H1094       H  0.61797795  0.29021287  0.43293326     0.00000
H1095       H  0.53714620  0.28716232  0.34018483     0.14500
H1096       H  0.62470751  0.33493504  0.30873303     0.14300
C1097       C  0.90366870  0.29016904  0.31763983     0.86100
C1098       C  0.88605838  0.32047916  0.33649250    -0.54100
C1099       C  0.87828504  0.31782271  0.37806486     0.09000
C1100       C  0.88936914  0.28480662  0.39780778     0.20000
C1101       C  0.93500103  0.28611673  0.34573256    -0.54800
C1102       C  0.92750798  0.28309138  0.38747341     0.09100
C1103       C  0.88091107  0.26103675  0.32914325    -0.54400
C1104       C  0.87271172  0.25827345  0.37038202     0.09700
H1105       H  0.87983711  0.34234802  0.31812317     0.14200
H1106       H  0.88337709  0.28254411  0.43166031     0.00000
H1107       H  0.96078079  0.28861088  0.33501940     0.14500
H1108       H  0.86978530  0.24517539  0.30564314     0.14300
C1109       C  0.76140335  0.44456687  0.32101421     0.86100
C1110       C  0.73240616  0.42151277  0.33274798    -0.54100
C1111       C  0.72990175  0.41369285  0.37414793     0.09000
C1112       C  0.75656624  0.43088175  0.40127116     0.20000
C1113       C  0.75560843  0.47519912  0.34806911    -0.54800
C1114       C  0.75335131  0.46794337  0.39001179     0.09100
C1115       C  0.79317669  0.42906660  0.34041427    -0.54400
C1116       C  0.79059863  0.42110601  0.38189986     0.09700
H1117       H  0.71612324  0.41045717  0.30937469     0.14200
H1118       H  0.75458992  0.42495665  0.43519746     0.00000
H1119       H  0.75407652  0.99990979  0.33452074     0.14500
H1120       H  0.81533522  0.42301317  0.32205061     0.14300
C1121       C  0.73844041  0.13343355  0.12712102     0.86100
C1122       C  0.70782120  0.15128383  0.10819596    -0.54100
C1123       C  0.71087966  0.15953015  0.06690277     0.09000
C1124       C  0.74389212  0.14684496  0.04692612     0.18600
C1125       C  0.74165364  0.10252746  0.09994818    -0.54800
C1126       C  0.74437722  0.10959156  0.05811148     0.09100
C1127       C  0.76911207  0.15448580  0.11510765    -0.54400
C1128       C  0.77257406  0.16140936  0.07347912     0.09700
H1129       H  0.68677010  0.15983617  0.12695754     0.14200
H1130       H  0.74602015  0.15213582  0.01288443     0.00000
H1131       H  0.74075181  0.07737139  0.11173319     0.14500
H1132       H  0.78695186  0.16327891  0.13828357     0.14300
C1133       C  0.59399225  0.28986671  0.13528887     0.86100
C1134       C  0.61230909  0.32174207  0.12317789    -0.54100
C1135       C  0.61862959  0.32602261  0.08153249     0.09000
C1136       C  0.60619768  0.29663288  0.05509144     0.20000
C1137       C  0.56187360  0.29006056  0.10824834    -0.54800
C1138       C  0.56850352  0.29346920  0.06635818     0.09100
C1139       C  0.61499578  0.26187911  0.11651323    -0.54400
C1140       C  0.62224348  0.26556540  0.07515182     0.09700
H1141       H  0.62028695  0.33943076  0.14649463     0.14200
H1142       H  0.61068308  0.29913769  0.02099003     0.00000
H1143       H  0.53650519  0.28654876  0.12021779     0.14500
H1144       H  0.62447661  0.24114267  0.13482851     0.14300
C1145       C  0.89952413  0.29245711  0.13181534     0.86100
C1146       C  0.87924425  0.26152122  0.12077992    -0.54100
C1147       C  0.87316775  0.25750453  0.07913217     0.09000
C1148       C  0.88718015  0.28557470  0.05163885     0.20000
C1149       C  0.93160461  0.29025163  0.10471673    -0.54800
C1150       C  0.92497163  0.28679307  0.06291686     0.09100
C1151       C  0.88028246  0.32134333  0.11150971    -0.54400
C1152       C  0.87254254  0.31724925  0.07027056     0.09700
H1153       H  0.86994922  0.24432186  0.14441671     0.14200
H1154       H  0.88197470  0.28277540  0.01771333     0.00000
H1155       H  0.95711782  0.29267611  0.11651956     0.14500
H1156       H  0.87103537  0.34230631  0.12899025     0.14300
C1157       C  0.75814242  0.44646592  0.13577935     0.86100
C1158       C  0.78502660  0.42421331  0.11583401    -0.54100
C1159       C  0.77918334  0.41642296  0.07516071     0.09000
C1160       C  0.74793784  0.43351756  0.05651159     0.20000
C1161       C  0.75901745  0.47725382  0.10724900    -0.54800
C1162       C  0.75330583  0.47031715  0.06601435     0.09100
C1163       C  0.72434795  0.42965288  0.12633664    -0.54400
C1164       C  0.71853374  0.42324908  0.08509289     0.09700
H1165       H  0.80606178  0.41350003  0.13295756     0.14200
H1166       H  0.74379385  0.42818201  0.02289058     0.00000
H1167       H  0.76276656  0.00198700  0.11463101     0.14500
H1168       H  0.70702389  0.42213903  0.15099671     0.14300
O1169       O  0.53239337  0.26329493  0.02215540    -0.74800
O1170       O  0.96664021  0.25800183  0.43446941    -0.74800
O1171       O  0.53559118  0.26169246  0.43791311    -0.74900
O1172       O  0.96414206  0.25976088  0.01895555    -0.74900
O1173       O  0.96211003  0.31481967  0.01690829    -0.74900
O1174       O  0.53231452  0.31664306  0.43467528    -0.74800
O1175       O  0.96358787  0.31298909  0.43249541    -0.74800
O1176       O  0.53031660  0.31833280  0.01880831    -0.74900
Ni1177     Ni  0.99975986  0.25864510  0.47837965     1.25400
Ni1178     Ni  0.99695903  0.31760490  0.47555163     1.25400
C1179       C  0.54226470  0.29163910  0.03444528     0.87400
C1180       C  0.95386887  0.28468932  0.41972870     0.87300
C1181       C  0.54589312  0.28952122  0.42343896     0.87300
C1182       C  0.95167305  0.28707745  0.03133255     0.87500
O1183       O  0.71960681  0.06922799  0.42914823    -0.74800
O1184       O  0.72058784  0.00383335  0.01627017    -0.74800
O1185       O  0.71833753  0.07083116  0.01359823    -0.74900
O1186       O  0.72137675  0.00249476  0.43189861    -0.74900
O1187       O  0.77769660  0.00405670  0.43353493    -0.74900
O1188       O  0.77463156  0.07334436  0.01406870    -0.74800
O1189       O  0.77687270  0.00661948  0.01800401    -0.74800
O1190       O  0.77596538  0.07076338  0.42985318    -0.74900
Ni1191     Ni  0.71793191  0.03654532  0.47273488     1.25400
Ni1192     Ni  0.77830986  0.03872004  0.47390939     1.25400
C1193       C  0.74766002  0.08061979  0.41535601     0.87400
C1194       C  0.75288079  0.49572324  0.03338143     0.87300
C1195       C  0.74588411  0.08346341  0.02686081     0.87300
C1196       C  0.75276208  0.49377725  0.42155584     0.87500
C1197       C  0.79622497  0.38718696  0.05755628    -0.00500
C1198       C  0.82517001  0.39147516  0.03271966    -0.12400
C1199       C  0.84952490  0.36630754  0.03062552     0.01700
C1200       C  0.84410936  0.33634786  0.05236130    -0.00600
C1201       C  0.81255304  0.33026501  0.07059633    -0.12300
C1202       C  0.78943510  0.35584369  0.07533619     0.01600
H1203       H  0.83061716  0.41554586  0.01922568     0.14600
H1204       H  0.80847046  0.30725288  0.08751186     0.14600
C1205       C  0.76310345  0.35159104  0.10618074     0.36200
C1206       C  0.88124312  0.37285629  0.51002024     0.36100
N1207       N  0.74309748  0.34939255  0.13243010    -0.44100
N1208       N  0.90667648  0.37803068  0.49341552    -0.44100
C1209       C  0.63736433  0.35616205  0.06685253    -0.00500
C1210       C  0.63131487  0.38594864  0.08769954    -0.12400
C1211       C  0.65619040  0.41031691  0.08981094     0.01700
C1212       C  0.68798865  0.40487417  0.07120144    -0.00600
C1213       C  0.69140627  0.37837988  0.04354860    -0.12300
C1214       C  0.66581587  0.35449883  0.04048541     0.01600
H1215       H  0.60824049  0.38895454  0.10550656     0.14600
H1216       H  0.71496585  0.37476197  0.02698729     0.14600
C1217       C  0.67049105  0.32735625  0.01275919     0.36200
C1218       C  0.64910095  0.43984465  0.11310809     0.36100
N1219       N  0.67344180  0.30509966  0.49088129    -0.44100
N1220       N  0.64358038  0.46349457  0.13185538    -0.44100
C1221       C  0.64682348  0.24273194  0.05561062    -0.00500
C1222       C  0.63549665  0.21239783  0.03994529    -0.12400
C1223       C  0.65753625  0.18518792  0.03763648     0.01700
C1224       C  0.69114167  0.18825081  0.05156699    -0.00600
C1225       C  0.70290834  0.21927406  0.06337782    -0.12300
C1226       C  0.68134002  0.24631020  0.06492905     0.01600
H1227       H  0.60891968  0.20913272  0.03314313     0.14600
H1228       H  0.72829498  0.22168544  0.07560105     0.14600
C1229       C  0.69460501  0.27653801  0.08100670     0.36200
C1230       C  0.64461865  0.15376803  0.02426218     0.36100
N1231       N  0.70550687  0.30085152  0.09364629    -0.44100
N1232       N  0.63436176  0.12857758  0.51328103    -0.44100
C1233       C  0.85311378  0.22916084  0.06376204    -0.00500
C1234       C  0.82449224  0.23488562  0.03895399    -0.12400
C1235       C  0.79944953  0.21050497  0.03523501     0.01700
C1236       C  0.80238788  0.18077953  0.05846700    -0.00600
C1237       C  0.83377391  0.17320519  0.07661010    -0.12300
C1238       C  0.85919244  0.19695636  0.07898305     0.01600
H1239       H  0.82051811  0.25906370  0.02501279     0.14600
H1240       H  0.83737632  0.14954913  0.09215183     0.14600
C1241       C  0.89065919  0.18824696  0.09898905     0.36200
C1242       C  0.77099272  0.21724752  0.50859507     0.36100
N1243       N  0.91596978  0.18131625  0.11479547    -0.44100
N1244       N  0.74874841  0.22307616  0.48633655    -0.44100
C1245       C  0.76360560  0.44753453  0.27313745    -0.00500
C1246       C  0.75174736  0.47561463  0.25139435    -0.12400
C1247       C  0.75010410  0.47664478  0.20729873     0.01700
C1248       C  0.76236688  0.44982176  0.18343465    -0.00600
C1249       C  0.77189845  0.42113478  0.20565462    -0.12300
C1250       C  0.77250406  0.41958102  0.24911023     0.01600
H1251       H  0.74181052  0.99585855  0.26654098     0.14600
H1252       H  0.77709813  0.39853525  0.18910122     0.14600
C1253       C  0.78030823  0.38775101  0.26771629     0.36200
C1254       C  0.73212944  0.00363503  0.18652752     0.36100
N1255       N  0.78667491  0.36225446  0.28230788    -0.44100
N1256       N  0.71628788  0.02476623  0.17192334    -0.44100
C1257       C  0.90292811  0.29510867  0.17972731    -0.00500
C1258       C  0.93251084  0.28472355  0.20063138    -0.12400
C1259       C  0.93406567  0.28219994  0.24470486     0.01700
C1260       C  0.90657789  0.29299414  0.26955426    -0.00600
C1261       C  0.87688790  0.30228211  0.24835734    -0.12300
C1262       C  0.87439102  0.30236970  0.20488472     0.01600
H1263       H  0.95368800  0.27569526  0.18277614     0.14600
H1264       H  0.85431353  0.30771779  0.26621502     0.14600
C1265       C  0.84107796  0.30777870  0.18775639     0.36200
C1266       C  0.96193084  0.26390371  0.26217945     0.36100
N1267       N  0.81418533  0.31206455  0.17475769    -0.44100
N1268       N  0.48427071  0.24861577  0.27551436    -0.44100
C1269       C  0.86038412  0.34517417  0.39950249    -0.00500
C1270       C  0.87253596  0.37734868  0.39270178    -0.12400
C1271       C  0.85073879  0.40437944  0.39444165     0.01700
C1272       C  0.81606704  0.39912018  0.40172899    -0.00600
C1273       C  0.80551103  0.36817960  0.41683718    -0.12300
C1274       C  0.82767475  0.34116929  0.41642205     0.01600
H1275       H  0.89823275  0.38099993  0.38193050     0.14600
H1276       H  0.77916372  0.36419050  0.42450510     0.14600
C1277       C  0.81516891  0.30957033  0.43045797     0.36200
C1278       C  0.86367836  0.43685123  0.38458275     0.36100
N1279       N  0.80449999  0.28478889  0.44294860    -0.44100
N1280       N  0.87394829  0.46293494  0.37682779    -0.44100
C1281       C  0.58918109  0.28700092  0.27236417    -0.00500
C1282       C  0.61891945  0.28054426  0.25020118    -0.12400
C1283       C  0.62072860  0.28225348  0.20711591     0.01700
C1284       C  0.59120138  0.28728015  0.18298649    -0.00600
C1285       C  0.56112818  0.29481605  0.20461638    -0.12300
C1286       C  0.56034402  0.29639500  0.24877837     0.01600
H1287       H  0.64202334  0.27583610  0.26705766     0.14600
H1288       H  0.53891157  0.30227202  0.18732456     0.14600
C1289       C  0.53176415  0.31240014  0.26758810     0.36200
C1290       C  0.65431166  0.28130826  0.18961441     0.36100
N1291       N  0.00901379  0.32595381  0.28206571    -0.44100
N1292       N  0.68169491  0.28092045  0.17720006    -0.44100
C1293       C  0.65568035  0.33828438  0.38322109    -0.00500
C1294       C  0.65331782  0.36495256  0.41092715    -0.12400
C1295       C  0.67922317  0.38891932  0.41250937     0.01700
C1296       C  0.70800302  0.38557854  0.38689256    -0.00600
C1297       C  0.71198586  0.35678432  0.36381562    -0.12300
C1298       C  0.68586105  0.33420827  0.36019865     0.01600
H1299       H  0.63034984  0.36841127  0.42876472     0.14600
H1300       H  0.73442241  0.35372257  0.34475653     0.14600
C1301       C  0.69050461  0.30796815  0.33067393     0.36200
C1302       C  0.67481812  0.41769392  0.43804659     0.36100
N1303       N  0.69500620  0.28741691  0.30656939    -0.44100
N1304       N  0.67148420  0.44075226  0.45865817    -0.44100
C1305       C  0.73834000  0.12590666  0.26451499    -0.00500
C1306       C  0.72956894  0.15522716  0.24321710    -0.12400
C1307       C  0.72977677  0.15784462  0.19983904     0.01700
C1308       C  0.73657860  0.12986601  0.17497802    -0.00600
C1309       C  0.74667394  0.10068660  0.19586759    -0.12300
C1310       C  0.74886601  0.09884767  0.23989336     0.01600
H1311       H  0.72424410  0.17728325  0.26089562     0.14600
H1312       H  0.75581379  0.08004914  0.17805813     0.14600
C1313       C  0.76678392  0.07107705  0.25740610     0.36200
C1314       C  0.72553514  0.19059171  0.18221920     0.36100
N1315       N  0.78218366  0.04910193  0.27066031    -0.44100
N1316       N  0.72256179  0.21688256  0.16829140    -0.44100
C1317       C  0.68576888  0.17502750  0.39153995    -0.00500
C1318       C  0.69765756  0.20517895  0.40601959    -0.12400
C1319       C  0.67663664  0.23283320  0.40706974     0.01700
C1320       C  0.64236722  0.22997269  0.39503737    -0.00600
C1321       C  0.62930896  0.19812168  0.38856668    -0.12300
C1322       C  0.65076200  0.17074703  0.38629700     0.01600
H1323       H  0.72449339  0.20830360  0.41103246     0.14600
H1324       H  0.60287712  0.19520694  0.38062052     0.14600
C1325       C  0.63670328  0.13906651  0.37575284     0.36200
C1326       C  0.69319945  0.26360551  0.41513066     0.36100
N1327       N  0.62532207  0.11366885  0.36748190    -0.44100
N1328       N  0.70972551  0.28643728  0.42194723    -0.44100
C1329       C  0.79327555  0.18776195  0.37814755    -0.00500
C1330       C  0.82231741  0.18251842  0.40262931    -0.12400
C1331       C  0.84763528  0.20698585  0.40484006     0.01700
C1332       C  0.84372997  0.23687915  0.38240150    -0.00600
C1333       C  0.81303522  0.24325229  0.36212907    -0.12300
C1334       C  0.78812987  0.21909817  0.35961457     0.01600
H1335       H  0.82639547  0.15860542  0.41724200     0.14600
H1336       H  0.80974547  0.26632022  0.34506960     0.14600
C1337       C  0.75900926  0.22577487  0.33388009     0.36200
C1338       C  0.87834382  0.20016330  0.42749268     0.36100
N1339       N  0.73581229  0.23025278  0.31270014    -0.44100
N1340       N  0.90299465  0.19500382  0.44578690    -0.44100
C1341       C  0.74045411  0.12857189  0.81245766     0.86100
C1342       C  0.76976313  0.15147911  0.82395536    -0.54100
C1343       C  0.77171709  0.15956308  0.86509684     0.09000
C1344       C  0.74450229  0.14277926  0.89221444     0.20000
C1345       C  0.74492065  0.09808927  0.84101646    -0.54800
C1346       C  0.74729648  0.10578240  0.88250897     0.09100
C1347       C  0.70869119  0.14508916  0.83069482    -0.54400
C1348       C  0.71073349  0.15268791  0.87209536     0.09700
H1349       H  0.78632701  0.16252864  0.80057494     0.14200
H1350       H  0.74619714  0.14881522  0.92597506     0.00000
H1351       H  0.74351722  0.07275304  0.83093434     0.14500
H1352       H  0.68709121  0.15208475  0.81167830     0.14300
C1353       C  0.59349674  0.28781990  0.82008879     0.86100
C1354       C  0.61311577  0.25733314  0.83603732    -0.54100
C1355       C  0.62276981  0.25812559  0.87694676     0.09000
C1356       C  0.61085107  0.28947412  0.89937488     0.20000
C1357       C  0.56324545  0.28910891  0.84973007    -0.54800
C1358       C  0.57211334  0.29023215  0.89101536     0.09100
C1359       C  0.61517786  0.31748828  0.83197442    -0.54400
C1360       C  0.62546180  0.31813362  0.87258845     0.09700
H1361       H  0.61929643  0.23665033  0.81608117     0.14200
H1362       H  0.61797800  0.29021288  0.93293322     0.00000
H1363       H  0.53714628  0.28716217  0.84018480     0.14500
H1364       H  0.62470759  0.33493505  0.80873297     0.14300
C1365       C  0.90366879  0.29016895  0.81763986     0.86100
C1366       C  0.88605847  0.32047908  0.83649251    -0.54100
C1367       C  0.87828510  0.31782264  0.87806484     0.09000
C1368       C  0.88936918  0.28480659  0.89780782     0.20000
C1369       C  0.93500110  0.28611660  0.84573262    -0.54800
C1370       C  0.92750803  0.28309131  0.88747347     0.09100
C1371       C  0.88091115  0.26103666  0.82914330    -0.54400
C1372       C  0.87271177  0.25827343  0.87038207     0.09700
H1373       H  0.87983714  0.34234794  0.81812319     0.14200
H1374       H  0.88337711  0.28254409  0.93166032     0.00000
H1375       H  0.96078088  0.28861071  0.83501949     0.14500
H1376       H  0.86978542  0.24517528  0.80564322     0.14300
C1377       C  0.76140343  0.44456683  0.82101421     0.86100
C1378       C  0.73240623  0.42151274  0.83274795    -0.54100
C1379       C  0.72990175  0.41369282  0.87414789     0.09000
C1380       C  0.75656623  0.43088169  0.90127116     0.20000
C1381       C  0.75560848  0.47519908  0.84806909    -0.54800
C1382       C  0.75335132  0.46794330  0.89001177     0.09100
C1383       C  0.79317676  0.42906659  0.84041434    -0.54400
C1384       C  0.79059864  0.42110594  0.88189992     0.09700
H1385       H  0.71612336  0.41045710  0.80937461     0.14200
H1386       H  0.75458987  0.42495658  0.93519747     0.00000
H1387       H  0.75407656  0.99990980  0.83452083     0.14500
H1388       H  0.81533535  0.42301322  0.82205075     0.14300
C1389       C  0.73844042  0.13343361  0.62712105     0.86100
C1390       C  0.70782119  0.15128387  0.60819603    -0.54100
C1391       C  0.71087960  0.15953018  0.56690283     0.09000
C1392       C  0.74389203  0.14684501  0.54692615     0.18600
C1393       C  0.74165368  0.10252752  0.59994819    -0.54800
C1394       C  0.74437715  0.10959162  0.55811149     0.09100
C1395       C  0.76911203  0.15448591  0.61510764    -0.54400
C1396       C  0.77257398  0.16140947  0.57347911     0.09700
H1397       H  0.68677013  0.15983625  0.62695768     0.14200
H1398       H  0.74602002  0.15213586  0.51288446     0.00000
H1399       H  0.74075192  0.07737144  0.61173323     0.14500
H1400       H  0.78695183  0.16327905  0.63828356     0.14300
C1401       C  0.59399224  0.28986671  0.63528885     0.86100
C1402       C  0.61230906  0.32174207  0.62317792    -0.54100
C1403       C  0.61862951  0.32602265  0.58153249     0.09000
C1404       C  0.60619764  0.29663295  0.55509139     0.20000
C1405       C  0.56187360  0.29006059  0.60824829    -0.54800
C1406       C  0.56850351  0.29346926  0.56635812     0.09100
C1407       C  0.61499580  0.26187916  0.61651315    -0.54400
C1408       C  0.62224348  0.26556547  0.57515172     0.09700
H1409       H  0.62028697  0.33943069  0.64649468     0.14200
H1410       H  0.61068303  0.29913780  0.52098996     0.00000
H1411       H  0.53650517  0.28654884  0.62021769     0.14500
H1412       H  0.62447666  0.24114276  0.63482837     0.14300
C1413       C  0.89952419  0.29245713  0.63181532     0.86100
C1414       C  0.87924427  0.26152126  0.62077987    -0.54100
C1415       C  0.87316773  0.25750460  0.57913211     0.09000
C1416       C  0.88718015  0.28557478  0.55163882     0.20000
C1417       C  0.93160466  0.29025165  0.60471667    -0.54800
C1418       C  0.92497164  0.28679309  0.56291682     0.09100
C1419       C  0.88028255  0.32134338  0.61150975    -0.54400
C1420       C  0.87254259  0.31724932  0.57027061     0.09700
H1421       H  0.86994928  0.24432186  0.64441660     0.14200
H1422       H  0.88197468  0.28277550  0.51771331     0.00000
H1423       H  0.95711789  0.29267617  0.61651942     0.14500
H1424       H  0.87103543  0.34230638  0.62899031     0.14300
C1425       C  0.75814246  0.44646595  0.63577937     0.86100
C1426       C  0.78502664  0.42421337  0.61583401    -0.54100
C1427       C  0.77918335  0.41642302  0.57516072     0.09000
C1428       C  0.74793783  0.43351761  0.55651161     0.20000
C1429       C  0.75901748  0.47725386  0.60724902    -0.54800
C1430       C  0.75330583  0.47031720  0.56601437     0.09100
C1431       C  0.72434801  0.42965288  0.62633668    -0.54400
C1432       C  0.71853374  0.42324912  0.58509294     0.09700
H1433       H  0.80606184  0.41350010  0.63295760     0.14200
H1434       H  0.74379385  0.42818208  0.52289063     0.00000
H1435       H  0.76276663  0.00198705  0.61463086     0.14500
H1436       H  0.70702402  0.42213896  0.65099681     0.14300
O1437       O  0.53239332  0.26329500  0.52215543    -0.74800
O1438       O  0.96664024  0.25800184  0.93446949    -0.74800
O1439       O  0.53559119  0.26169238  0.93791300    -0.74900
O1440       O  0.96414205  0.25976084  0.51895558    -0.74900
O1441       O  0.96211002  0.31481961  0.51690819    -0.74900
O1442       O  0.53231456  0.31664300  0.93467540    -0.74800
O1443       O  0.96358790  0.31298910  0.93249544    -0.74800
O1444       O  0.53031662  0.31833285  0.51880820    -0.74900
Ni1445     Ni  0.99975989  0.25864514  0.97837965     1.25400
Ni1446     Ni  0.99695903  0.31760493  0.97555171     1.25400
C1447       C  0.54226469  0.29163916  0.53444523     0.87400
C1448       C  0.95386889  0.28468932  0.91972877     0.87300
C1449       C  0.54589315  0.28952117  0.92343895     0.87300
C1450       C  0.95167304  0.28707742  0.53133251     0.87500
O1451       O  0.71960688  0.06922789  0.92914813    -0.74800
O1452       O  0.72058779  0.00383337  0.51627012    -0.74800
O1453       O  0.71833745  0.07083120  0.51359822    -0.74900
O1454       O  0.72137672  0.00249464  0.93189872    -0.74900
O1455       O  0.77769657  0.00405662  0.93353493    -0.74900
O1456       O  0.77463148  0.07334445  0.51406870    -0.74800
O1457       O  0.77687267  0.00661949  0.51800395    -0.74800
O1458       O  0.77596543  0.07076332  0.92985314    -0.74900
Ni1459     Ni  0.71793195  0.03654526  0.97273490     1.25400
Ni1460     Ni  0.77830987  0.03871997  0.97390939     1.25400
C1461       C  0.74766008  0.08061973  0.91535596     0.87400
C1462       C  0.75288084  0.49572327  0.53338140     0.87300
C1463       C  0.74588402  0.08346349  0.52686079     0.87300
C1464       C  0.75276209  0.49377718  0.92155581     0.87500
C1465       C  0.79622499  0.38718703  0.55755632    -0.00500
C1466       C  0.82517006  0.39147524  0.53271976    -0.12400
C1467       C  0.84952496  0.36630762  0.53062561     0.01700
C1468       C  0.84410941  0.33634795  0.55236142    -0.00600
C1469       C  0.81255308  0.33026511  0.57059648    -0.12300
C1470       C  0.78943513  0.35584378  0.57533629     0.01600
H1471       H  0.83061721  0.41554595  0.51922575     0.14600
H1472       H  0.80847047  0.30725297  0.58751201     0.14600
C1473       C  0.76310344  0.35159114  0.60618078     0.36200
C1474       C  0.88124305  0.37285622  0.01002020     0.36100
N1475       N  0.74309743  0.34939262  0.63243012    -0.44100
N1476       N  0.90667639  0.37803054  0.99341540    -0.44100
C1477       C  0.63736429  0.35616207  0.56685263    -0.00500
C1478       C  0.63131489  0.38594862  0.58769979    -0.12400
C1479       C  0.65619042  0.41031689  0.58981118     0.01700
C1480       C  0.68798864  0.40487418  0.57120156    -0.00600
C1481       C  0.69140623  0.37837988  0.54354872    -0.12300
C1482       C  0.66581586  0.35449881  0.54048554     0.01600
H1483       H  0.60824052  0.38895452  0.60550685     0.14600
H1484       H  0.71496580  0.37476198  0.52698733     0.14600
C1485       C  0.67049102  0.32735626  0.51275929     0.36200
C1486       C  0.64910099  0.43984465  0.61310828     0.36100
N1487       N  0.67344184  0.30509962  0.99088129    -0.44100
N1488       N  0.64358046  0.46349461  0.63185553    -0.44100
C1489       C  0.64682351  0.24273202  0.55561056    -0.00500
C1490       C  0.63549669  0.21239791  0.53994520    -0.12400
C1491       C  0.65753626  0.18518796  0.53763650     0.01700
C1492       C  0.69114166  0.18825084  0.55156702    -0.00600
C1493       C  0.70290836  0.21927410  0.56337782    -0.12300
C1494       C  0.68134002  0.24631024  0.56492914     0.01600
H1495       H  0.60891974  0.20913283  0.53314293     0.14600
H1496       H  0.72829498  0.22168549  0.57560100     0.14600
C1497       C  0.69460504  0.27653805  0.58100680     0.36200
C1498       C  0.64461870  0.15376810  0.52426204     0.36100
N1499       N  0.70550696  0.30085160  0.59364623    -0.44100
N1500       N  0.63436166  0.12857745  0.01328142    -0.44100
C1501       C  0.85311377  0.22916088  0.56376194    -0.00500
C1502       C  0.82449224  0.23488567  0.53895385    -0.12400
C1503       C  0.79944949  0.21050503  0.53523488     0.01700
C1504       C  0.80238780  0.18077962  0.55846693    -0.00600
C1505       C  0.83377382  0.17320525  0.57661004    -0.12300
C1506       C  0.85919240  0.19695639  0.57898296     0.01600
H1507       H  0.82051815  0.25906376  0.52501269     0.14600
H1508       H  0.83737614  0.14954922  0.59215173     0.14600
C1509       C  0.89065917  0.18824694  0.59898891     0.36200
C1510       C  0.77099278  0.21724740  0.00859512     0.36100
N1511       N  0.91596981  0.18131630  0.61479530    -0.44100
N1512       N  0.74874853  0.22307599  0.98633649    -0.44100
C1513       C  0.76360570  0.44753455  0.77313745    -0.00500
C1514       C  0.75174745  0.47561465  0.75139437    -0.12400
C1515       C  0.75010419  0.47664482  0.70729876     0.01700
C1516       C  0.76236691  0.44982177  0.68343466    -0.00600
C1517       C  0.77189839  0.42113477  0.70565462    -0.12300
C1518       C  0.77250410  0.41958105  0.74911022     0.01600
H1519       H  0.74181063  0.99585862  0.76654096     0.14600
H1520       H  0.77709801  0.39853522  0.68910123     0.14600
C1521       C  0.78030825  0.38775105  0.76771627     0.36200
C1522       C  0.73212953  0.00363505  0.68652750     0.36100
N1523       N  0.78667479  0.36225446  0.78230780    -0.44100
N1524       N  0.71628791  0.02476616  0.67192322    -0.44100
C1525       C  0.90292817  0.29510862  0.67972730    -0.00500
C1526       C  0.93251087  0.28472342  0.70063136    -0.12400
C1527       C  0.93406566  0.28219978  0.74470484     0.01700
C1528       C  0.90657794  0.29299404  0.76955427    -0.00600
C1529       C  0.87688800  0.30228214  0.74835735    -0.12300
C1530       C  0.87439111  0.30236973  0.70488473     0.01600
H1531       H  0.95368804  0.27569515  0.68277611     0.14600
H1532       H  0.85431363  0.30771789  0.76621503     0.14600
C1533       C  0.84107805  0.30777878  0.68775644     0.36200
C1534       C  0.96193083  0.26390358  0.76217941     0.36100
N1535       N  0.81418539  0.31206463  0.67475783    -0.44100
N1536       N  0.48427061  0.24861576  0.77551457    -0.44100
C1537       C  0.86038408  0.34517404  0.89950242    -0.00500
C1538       C  0.87253595  0.37734856  0.89270189    -0.12400
C1539       C  0.85073879  0.40437934  0.89444183     0.01700
C1540       C  0.81606702  0.39912006  0.90172903    -0.00600
C1541       C  0.80551098  0.36817945  0.91683709    -0.12300
C1542       C  0.82767470  0.34116912  0.91642191     0.01600
H1543       H  0.89823273  0.38099983  0.88193073     0.14600
H1544       H  0.77916367  0.36419036  0.92450499     0.14600
C1545       C  0.81516885  0.30957015  0.93045785     0.36200
C1546       C  0.86367836  0.43685116  0.88458297     0.36100
N1547       N  0.80449985  0.28478874  0.94294848    -0.44100
N1548       N  0.87394819  0.46293491  0.87682795    -0.44100
C1549       C  0.58918110  0.28700087  0.77236420    -0.00500
C1550       C  0.61891945  0.28054411  0.75020121    -0.12400
C1551       C  0.62072863  0.28225332  0.70711596     0.01700
C1552       C  0.59120141  0.28728009  0.68298653    -0.00600
C1553       C  0.56112823  0.29481608  0.70461644    -0.12300
C1554       C  0.56034403  0.29639502  0.74877843     0.01600
H1555       H  0.64202334  0.27583593  0.76705772     0.14600
H1556       H  0.53891164  0.30227209  0.68732460     0.14600
C1557       C  0.53176407  0.31240009  0.76758821     0.36200
C1558       C  0.65431172  0.28130809  0.68961453     0.36100
N1559       N  0.00901377  0.32595392  0.78206562    -0.44100
N1560       N  0.68169498  0.28092029  0.67720025    -0.44100
C1561       C  0.65568042  0.33828430  0.88322100    -0.00500
C1562       C  0.65331788  0.36495244  0.91092710    -0.12400
C1563       C  0.67922323  0.38891918  0.91250936     0.01700
C1564       C  0.70800302  0.38557849  0.88689245    -0.00600
C1565       C  0.71198586  0.35678432  0.86381541    -0.12300
C1566       C  0.68586109  0.33420822  0.86019852     0.01600
H1567       H  0.63034990  0.36841111  0.92876468     0.14600
H1568       H  0.73442236  0.35372262  0.84475629     0.14600
C1569       C  0.69050467  0.30796811  0.83067382     0.36200
C1570       C  0.67481819  0.41769373  0.93804663     0.36100
N1571       N  0.69500629  0.28741691  0.80656922    -0.44100
N1572       N  0.67148428  0.44075212  0.95865814    -0.44100
C1573       C  0.73834002  0.12590667  0.76451503    -0.00500
C1574       C  0.72956901  0.15522720  0.74321714    -0.12400
C1575       C  0.72977686  0.15784466  0.69983907     0.01700
C1576       C  0.73657869  0.12986605  0.67497806    -0.00600
C1577       C  0.74667403  0.10068663  0.69586764    -0.12300
C1578       C  0.74886608  0.09884769  0.73989341     0.01600
H1579       H  0.72424414  0.17728328  0.76089567     0.14600
H1580       H  0.75581385  0.08004917  0.67805818     0.14600
C1581       C  0.76678396  0.07107705  0.75740620     0.36200
C1582       C  0.72553521  0.19059174  0.68221918     0.36100
N1583       N  0.78218373  0.04910197  0.77066050    -0.44100
N1584       N  0.72256187  0.21688256  0.66829129    -0.44100
C1585       C  0.68576893  0.17502743  0.89154011    -0.00500
C1586       C  0.69765764  0.20517892  0.90601959    -0.12400
C1587       C  0.67663672  0.23283318  0.90706978     0.01700
C1588       C  0.64236728  0.22997267  0.89503745    -0.00600
C1589       C  0.62930901  0.19812165  0.88856683    -0.12300
C1590       C  0.65076204  0.17074696  0.88629719     0.01600
H1591       H  0.72449348  0.20830360  0.91103230     0.14600
H1592       H  0.60287717  0.19520691  0.88062068     0.14600
C1593       C  0.63670333  0.13906643  0.87575304     0.36200
C1594       C  0.69319953  0.26360548  0.91513067     0.36100
N1595       N  0.62532216  0.11366874  0.86748211    -0.44100
N1596       N  0.70972562  0.28643721  0.92194735    -0.44100
C1597       C  0.79327563  0.18776197  0.87814746    -0.00500
C1598       C  0.82231745  0.18251849  0.90262932    -0.12400
C1599       C  0.84763532  0.20698591  0.90484011     0.01700
C1600       C  0.84373000  0.23687921  0.88240153    -0.00600
C1601       C  0.81303529  0.24325233  0.86212903    -0.12300
C1602       C  0.78812996  0.21909819  0.85961444     0.01600
H1603       H  0.82639550  0.15860551  0.91724207     0.14600
H1604       H  0.80974556  0.26632031  0.84506953     0.14600
C1605       C  0.75900930  0.22577487  0.83388004     0.36200
C1606       C  0.87834387  0.20016338  0.92749272     0.36100
N1607       N  0.73581216  0.23025265  0.81270031    -0.44100
N1608       N  0.90299476  0.19500390  0.94578685    -0.44100
C1609       C  0.74549695  0.63070726  0.31524041     0.86100
C1610       C  0.77537610  0.65277215  0.32702214    -0.54100
C1611       C  0.77715021  0.66098841  0.36808450     0.09000
C1612       C  0.74949351  0.64487166  0.39508042     0.20000
C1613       C  0.74889008  0.60015979  0.34397683    -0.54800
C1614       C  0.75135716  0.60779952  0.38544988     0.09100
C1615       C  0.71415263  0.64824436  0.33314304    -0.54400
C1616       C  0.71618615  0.65558369  0.37470674     0.09700
H1617       H  0.79226334  0.66355762  0.30379486     0.14200
H1618       H  0.75119887  0.65092669  0.42883414     0.00000
H1619       H  0.74679154  0.57483928  0.33413539     0.14500
H1620       H  0.69276294  0.65565047  0.31400942     0.14300
C1621       C  0.59394348  0.78032870  0.32010563     0.86100
C1622       C  0.61293188  0.75090455  0.34004350    -0.54100
C1623       C  0.62337871  0.75516316  0.38015896     0.09000
C1624       C  0.61237822  0.78850722  0.39821082     0.20000
C1625       C  0.56413560  0.78469461  0.34974435    -0.54800
C1626       C  0.57358937  0.78911889  0.39047168     0.09100
C1627       C  0.61624938  0.81040094  0.32723079    -0.54400
C1628       C  0.62709031  0.81436637  0.36728974     0.09700
H1629       H  0.61764272  0.72797459  0.32380017     0.14200
H1630       H  0.62006104  0.79198682  0.43127952     0.00000
H1631       H  0.53793655  0.78248766  0.34035213     0.14500
H1632       H  0.62516128  0.82590882  0.30154893     0.14300
C1633       C  0.90664187  0.79342685  0.31666721     0.86100
C1634       C  0.88801750  0.82314377  0.33546096    -0.54100
C1635       C  0.88044792  0.82025587  0.37706363     0.09000
C1636       C  0.89257026  0.78767120  0.39682252     0.20000
C1637       C  0.93811676  0.79045121  0.34476155    -0.54800
C1638       C  0.93062770  0.78716043  0.38645421     0.09100
C1639       C  0.88487751  0.76355153  0.32826701    -0.54400
C1640       C  0.87688328  0.76061579  0.36953800     0.09700
H1641       H  0.88110275  0.84481235  0.31708990     0.14200
H1642       H  0.88667908  0.78523847  0.43068958     0.00000
H1643       H  0.96386141  0.79349213  0.33416659     0.14500
H1644       H  0.87416825  0.74733696  0.30486145     0.14300
C1645       C  0.76284017  0.94469241  0.31832663     0.86100
C1646       C  0.73462358  0.92029663  0.32807922    -0.54100
C1647       C  0.73125722  0.91154051  0.36904899     0.09000
C1648       C  0.75618927  0.92952791  0.39792652     0.20000
C1649       C  0.75482826  0.97459581  0.34578597    -0.54800
C1650       C  0.75158564  0.96661602  0.38742730     0.09100
C1651       C  0.79465583  0.93029330  0.33875338    -0.54400
C1652       C  0.79124356  0.92160393  0.37991998     0.09700
H1653       H  0.71931186  0.90934505  0.30364134     0.14200
H1654       H  0.75351956  0.92299223  0.43160130     0.00000
H1655       H  0.75527989  0.50034622  0.33618993     0.14500
H1656       H  0.81750890  0.92541499  0.32114512     0.14300
C1657       C  0.74591713  0.63502456  0.12963494     0.86100
C1658       C  0.71551669  0.65363548  0.11142706    -0.54100
C1659       C  0.71780817  0.66107041  0.06976399     0.09000
C1660       C  0.74998657  0.64760099  0.04904239     0.18600
C1661       C  0.74786801  0.60383206  0.10271805    -0.54800
C1662       C  0.75005076  0.61057193  0.06075853     0.09100
C1663       C  0.77686411  0.65519522  0.11633289    -0.54400
C1664       C  0.77932180  0.66192214  0.07451349     0.09700
H1665       H  0.69529943  0.66319235  0.13081437     0.14200
H1666       H  0.75156247  0.65261551  0.01488498     0.00000
H1667       H  0.74681783  0.57874718  0.11468698     0.14500
H1668       H  0.79533158  0.66393117  0.13877020     0.14300
C1669       C  0.59335752  0.77985104  0.13616313     0.86100
C1670       C  0.61475203  0.81091128  0.12849579    -0.54100
C1671       C  0.62159093  0.81809067  0.08754523     0.09000
C1672       C  0.60736067  0.79224739  0.05743013     0.20000
C1673       C  0.56182061  0.78506142  0.10899642    -0.54800
C1674       C  0.56934178  0.79124943  0.06776393     0.09100
C1675       C  0.61136898  0.75169534  0.11348548    -0.54400
C1676       C  0.62064217  0.75870095  0.07350516     0.09700
H1677       H  0.62363404  0.82623633  0.15391481     0.14200
H1678       H  0.61258269  0.79708995  0.02383072     0.00000
H1679       H  0.53616527  0.78208158  0.12033772     0.14500
H1680       H  0.61761252  0.72815062  0.12787961     0.14300
C1681       C  0.90185739  0.79573715  0.13112808     0.86100
C1682       C  0.88229236  0.76438361  0.12005878    -0.54100
C1683       C  0.87621563  0.76041587  0.07842397     0.09000
C1684       C  0.88939736  0.78882302  0.05102449     0.20000
C1685       C  0.93387555  0.79428006  0.10384061    -0.54800
C1686       C  0.92711715  0.79072179  0.06212403     0.09100
C1687       C  0.88179693  0.82421484  0.11115164    -0.54400
C1688       C  0.87409044  0.82007469  0.06992175     0.09700
H1689       H  0.87356739  0.74682244  0.14360834     0.14200
H1690       H  0.88413961  0.78596002  0.01711672     0.00000
H1691       H  0.95943175  0.79681842  0.11541958     0.14500
H1692       H  0.87196639  0.84479561  0.12888109     0.14300
C1693       C  0.75823644  0.94661691  0.13396852     0.86100
C1694       C  0.78498600  0.92496864  0.11279125    -0.54100
C1695       C  0.77780692  0.91652434  0.07271709     0.09000
C1696       C  0.74526184  0.93242744  0.05573635     0.20000
C1697       C  0.75702640  0.97705483  0.10497392    -0.54800
C1698       C  0.74982644  0.96952034  0.06430774     0.09100
C1699       C  0.72468002  0.92870234  0.12701412    -0.54400
C1700       C  0.71740644  0.92156847  0.08637347     0.09700
H1701       H  0.80710800  0.91523141  0.12868486     0.14200
H1702       H  0.74000789  0.92656684  0.02250632     0.00000
H1703       H  0.76463474  0.50198681  0.11775501     0.14500
H1704       H  0.70883319  0.92069406  0.15293296     0.14300
O1705       O  0.53309689  0.76319992  0.02200856    -0.74800
O1706       O  0.96804659  0.76077397  0.43389078    -0.74800
O1707       O  0.53660878  0.76200591  0.43767596    -0.74900
O1708       O  0.96508912  0.76238876  0.01819080    -0.74900
O1709       O  0.96520182  0.81750771  0.01635769    -0.74900
O1710       O  0.53593742  0.81709178  0.43520157    -0.74800
O1711       O  0.96742385  0.81586074  0.43184734    -0.74800
O1712       O  0.53326233  0.81830952  0.01944409    -0.74900
Ni1713     Ni  0.00075977  0.76007009  0.47795718     1.25400
Ni1714     Ni  0.00044216  0.81914068  0.47556321     1.25400
C1715       C  0.54379205  0.79102299  0.03502648     0.87400
C1716       C  0.95672328  0.78794377  0.41888679     0.87300
C1717       C  0.54800293  0.78948505  0.42340781     0.87300
C1718       C  0.95370446  0.79013378  0.03059845     0.87500
O1719       O  0.72356721  0.57142428  0.43232830    -0.74800
O1720       O  0.72451777  0.50549667  0.01877197    -0.74800
O1721       O  0.72314599  0.57233089  0.01671153    -0.74900
O1722       O  0.72439191  0.50463422  0.43444483    -0.74900
O1723       O  0.78074750  0.50522666  0.43524387    -0.74900
O1724       O  0.77948635  0.57410779  0.01634450    -0.74800
O1725       O  0.78085330  0.50737166  0.01982389    -0.74800
O1726       O  0.77994278  0.57204648  0.43208836    -0.74900
Ni1727     Ni  0.72188325  0.53844457  0.47558112     1.25400
Ni1728     Ni  0.78230331  0.53969165  0.47586975     1.25400
C1729       C  0.75164341  0.58250510  0.41820968     0.87400
C1730       C  0.74900180  0.99455452  0.03125444     0.87300
C1731       C  0.75098451  0.58445381  0.02967053     0.87300
C1732       C  0.75007256  0.99211762  0.41941956     0.87500
C1733       C  0.79542713  0.88774772  0.05477517    -0.00500
C1734       C  0.82491137  0.89298318  0.03119483    -0.12400
C1735       C  0.85026146  0.86872839  0.03032580     0.01700
C1736       C  0.84537911  0.83866355  0.05194889    -0.00600
C1737       C  0.81370930  0.83156911  0.06921161    -0.12300
C1738       C  0.78939383  0.85621991  0.07251641     0.01600
H1739       H  0.82992251  0.91724463  0.01799776     0.14600
H1740       H  0.81010440  0.80850880  0.08619552     0.14600
C1741       C  0.76231609  0.85093461  0.10204645     0.36200
C1742       C  0.88243216  0.87644910  0.51152461     0.36100
N1743       N  0.74154288  0.84772815  0.12716653    -0.44100
N1744       N  0.90834886  0.88243637  0.49659375    -0.44100
C1745       C  0.64079891  0.84853029  0.07557440    -0.00500
C1746       C  0.63388654  0.87772928  0.09722392    -0.12400
C1747       C  0.65668221  0.90404402  0.09663268     0.01700
C1748       C  0.68767597  0.90093828  0.07524856    -0.00600
C1749       C  0.69199310  0.87422546  0.04823142    -0.12300
C1750       C  0.66853901  0.84828751  0.04781705     0.01600
H1751       H  0.61141496  0.87932290  0.11646914     0.14600
H1752       H  0.71502839  0.87208222  0.03016855     0.14600
C1753       C  0.67534203  0.82061898  0.02153870     0.36200
C1754       C  0.64821610  0.93353280  0.11929546     0.36100
N1755       N  0.68064254  0.79811866  0.50073087    -0.44100
N1756       N  0.64155359  0.95722941  0.13737357    -0.44100
C1757       C  0.64907714  0.73966674  0.05579966    -0.00500
C1758       C  0.64225218  0.71027504  0.03447571    -0.12400
C1759       C  0.66635628  0.68479697  0.03350757     0.01700
C1760       C  0.69772297  0.68911835  0.05345328    -0.00600
C1761       C  0.70590059  0.71998688  0.06960474    -0.12300
C1762       C  0.68184309  0.74481825  0.07187429     0.01600
H1763       H  0.61705283  0.70586545  0.02260504     0.14600
H1764       H  0.72993048  0.72326287  0.08525970     0.14600
C1765       C  0.68989121  0.77288754  0.09725706     0.36200
C1766       C  0.65731459  0.65354646  0.01555129     0.36100
N1767       N  0.69630369  0.79479521  0.11866358    -0.44100
N1768       N  0.64999632  0.62853195  0.50100525    -0.44100
C1769       C  0.85720675  0.73160489  0.06285392    -0.00500
C1770       C  0.82805714  0.73667873  0.03883238    -0.12400
C1771       C  0.80365864  0.71169425  0.03573799     0.01700
C1772       C  0.80816028  0.68183621  0.05828070    -0.00600
C1773       C  0.84010188  0.67497966  0.07524211    -0.12300
C1774       C  0.86463998  0.69954072  0.07755073     0.01600
H1775       H  0.82302159  0.76087524  0.02548747     0.14600
H1776       H  0.84467832  0.65135381  0.09045397     0.14600
C1777       C  0.89634545  0.69192936  0.09768500     0.36200
C1778       C  0.77395834  0.71820547  0.51113022     0.36100
N1779       N  0.92177498  0.68596806  0.11381675    -0.44100
N1780       N  0.75074083  0.72390323  0.49039629    -0.44100
C1781       C  0.76612642  0.94833322  0.27071429    -0.00500
C1782       C  0.75316966  0.97601936  0.24920066    -0.12400
C1783       C  0.75119982  0.97704052  0.20519087     0.01700
C1784       C  0.76411163  0.95062953  0.18115045    -0.00600
C1785       C  0.77543254  0.92247494  0.20315843    -0.12300
C1786       C  0.77652906  0.92093811  0.24655048     0.01600
H1787       H  0.74114585  0.49591462  0.26861534     0.14600
H1788       H  0.78135793  0.90005174  0.18659245     0.14600
C1789       C  0.78602248  0.88944871  0.26492116     0.36200
C1790       C  0.73203646  0.50378344  0.18832607     0.36100
N1791       N  0.79374458  0.86424111  0.27930986    -0.44100
N1792       N  0.71695098  0.52536300  0.17352399    -0.44100
C1793       C  0.90530993  0.79831135  0.17895628    -0.00500
C1794       C  0.93555304  0.78969032  0.19965991    -0.12400
C1795       C  0.93738683  0.78726585  0.24368552     0.01700
C1796       C  0.90930746  0.79633238  0.26862880    -0.00600
C1797       C  0.87908017  0.80407394  0.24761551    -0.12300
C1798       C  0.87647355  0.80408593  0.20418923     0.01600
H1799       H  0.95721808  0.78192543  0.18175723     0.14600
H1800       H  0.85630188  0.80836310  0.26560231     0.14600
C1801       C  0.84290370  0.80792382  0.18710654     0.36200
C1802       C  0.96634714  0.77058624  0.26096878     0.36100
N1803       N  0.81584029  0.81090699  0.17406455    -0.44100
N1804       N  0.48938690  0.75631749  0.27415674    -0.44100
C1805       C  0.86222520  0.84717200  0.39873950    -0.00500
C1806       C  0.87391379  0.87948571  0.39202744    -0.12400
C1807       C  0.85164596  0.90612299  0.39329947     0.01700
C1808       C  0.81699774  0.90026602  0.40027617    -0.00600
C1809       C  0.80691618  0.86922208  0.41558264    -0.12300
C1810       C  0.82955286  0.84261199  0.41546104     0.01600
H1811       H  0.89958125  0.88349420  0.38132872     0.14600
H1812       H  0.78060527  0.86476755  0.42304086     0.14600
C1813       C  0.81764558  0.81082169  0.42962394     0.36200
C1814       C  0.86408490  0.93861819  0.38253628     0.36100
N1815       N  0.80751088  0.78587018  0.44226308    -0.44100
N1816       N  0.87395999  0.96464358  0.37370649    -0.44100
C1817       C  0.58800197  0.77595369  0.27308854    -0.00500
C1818       C  0.61432475  0.76095730  0.25098405    -0.12400
C1819       C  0.61564978  0.76052880  0.20780309     0.01700
C1820       C  0.58908637  0.77427133  0.18342759    -0.00600
C1821       C  0.56325708  0.79092851  0.20516991    -0.12300
C1822       C  0.56325017  0.79298003  0.24925353     0.01600
H1823       H  0.63635726  0.75181636  0.26736805     0.14600
H1824       H  0.54457360  0.80484137  0.18770781     0.14600
C1825       C  0.54024791  0.81591640  0.26830891     0.36200
C1826       C  0.64682659  0.74806844  0.19096419     0.36100
N1827       N  0.02203831  0.83451313  0.28340242    -0.44100
N1828       N  0.67191559  0.73723320  0.17890992    -0.44100
C1829       C  0.65685507  0.83583907  0.37542344    -0.00500
C1830       C  0.65556808  0.86101014  0.40539831    -0.12400
C1831       C  0.68152205  0.88487124  0.40750618     0.01700
C1832       C  0.70927739  0.88295669  0.37996826    -0.00600
C1833       C  0.71236052  0.85534123  0.35431815    -0.12300
C1834       C  0.68623886  0.83275235  0.35056056     0.01600
H1835       H  0.63348118  0.86324342  0.42516754     0.14600
H1836       H  0.73421137  0.85305700  0.33408071     0.14600
C1837       C  0.69016604  0.80713980  0.31983652     0.36200
C1838       C  0.67832895  0.91190345  0.43618691     0.36100
N1839       N  0.69312886  0.78718112  0.29452354    -0.44100
N1840       N  0.67599362  0.93348177  0.45940989    -0.44100
C1841       C  0.74387866  0.62801235  0.26721471    -0.00500
C1842       C  0.73774968  0.65784580  0.24559744    -0.12400
C1843       C  0.73971611  0.66042398  0.20222961     0.01700
C1844       C  0.74438210  0.63191204  0.17759913    -0.00600
C1845       C  0.75119095  0.60199749  0.19881888    -0.12300
C1846       C  0.75264724  0.60016969  0.24288010     0.01600
H1847       H  0.73373250  0.68024460  0.26314413     0.14600
H1848       H  0.75839997  0.58047028  0.18137271     0.14600
C1849       C  0.76819666  0.57119849  0.26071395     0.36200
C1850       C  0.74051692  0.69340237  0.18456094     0.36100
N1851       N  0.78181350  0.54820706  0.27421059    -0.44100
N1852       N  0.74246279  0.71987281  0.17087437    -0.44100
C1853       C  0.69080719  0.67686889  0.39511737    -0.00500
C1854       C  0.70135916  0.70780254  0.40869112    -0.12400
C1855       C  0.67868352  0.73419424  0.41027257     0.01700
C1856       C  0.64427901  0.72899754  0.40055169    -0.00600
C1857       C  0.63294913  0.69625637  0.39633766    -0.12300
C1858       C  0.65601762  0.67034137  0.39234703     0.01600
H1859       H  0.72808196  0.71250846  0.41238125     0.14600
H1860       H  0.60646226  0.69161608  0.39019348     0.14600
C1861       C  0.64370852  0.63793082  0.38202884     0.36200
C1862       C  0.69318125  0.76632574  0.41587130     0.36100
N1863       N  0.63383682  0.61193782  0.37377139    -0.44100
N1864       N  0.70737387  0.79090617  0.42076692    -0.44100
C1865       C  0.79830883  0.68946134  0.38060356    -0.00500
C1866       C  0.82811087  0.68439450  0.40359292    -0.12400
C1867       C  0.85330673  0.70895626  0.40446441     0.01700
C1868       C  0.84857036  0.73867480  0.38193217    -0.00600
C1869       C  0.81736459  0.74479788  0.36283213    -0.12300
C1870       C  0.79236765  0.72068310  0.36209311     0.01600
H1871       H  0.83278860  0.66052107  0.41803327     0.14600
H1872       H  0.81346753  0.76779007  0.34580572     0.14600
C1873       C  0.76198828  0.72752062  0.33871259     0.36200
C1874       C  0.88468471  0.70227855  0.42571054     0.36100
N1875       N  0.73760140  0.73264227  0.31992813    -0.44100
N1876       N  0.90983264  0.69705309  0.44289225    -0.44100
C1877       C  0.74549686  0.63070730  0.81524039     0.86100
C1878       C  0.77537604  0.65277220  0.82702209    -0.54100
C1879       C  0.77715023  0.66098841  0.86808446     0.09000
C1880       C  0.74949356  0.64487165  0.89508042     0.20000
C1881       C  0.74888998  0.60015981  0.84397682    -0.54800
C1882       C  0.75135713  0.60779952  0.88544986     0.09100
C1883       C  0.71415261  0.64824445  0.83314309    -0.54400
C1884       C  0.71618619  0.65558373  0.87470679     0.09700
H1885       H  0.79226316  0.66355777  0.80379474     0.14200
H1886       H  0.75119900  0.65092663  0.92883413     0.00000
H1887       H  0.74679137  0.57483931  0.83413537     0.14500
H1888       H  0.69276288  0.65565064  0.81400953     0.14300
C1889       C  0.59394351  0.78032867  0.82010568     0.86100
C1890       C  0.61293194  0.75090454  0.84004350    -0.54100
C1891       C  0.62337876  0.75516312  0.88015894     0.09000
C1892       C  0.61237831  0.78850717  0.89821085     0.20000
C1893       C  0.56413565  0.78469455  0.84974443    -0.54800
C1894       C  0.57358945  0.78911880  0.89047175     0.09100
C1895       C  0.61624936  0.81040097  0.82723083    -0.54400
C1896       C  0.62709035  0.81436636  0.86728977     0.09700
H1897       H  0.61764277  0.72797455  0.82380018     0.14200
H1898       H  0.62006117  0.79198676  0.93127954     0.00000
H1899       H  0.53793659  0.78248766  0.84035226     0.14500
H1900       H  0.62516117  0.82590889  0.80154900     0.14300
C1901       C  0.90664191  0.79342691  0.81666722     0.86100
C1902       C  0.88801753  0.82314382  0.83546090    -0.54100
C1903       C  0.88044791  0.82025592  0.87706356     0.09000
C1904       C  0.89257027  0.78767129  0.89682252     0.20000
C1905       C  0.93811679  0.79045129  0.84476159    -0.54800
C1906       C  0.93062771  0.78716053  0.88645426     0.09100
C1907       C  0.88487757  0.76355158  0.82826706    -0.54400
C1908       C  0.87688332  0.76061585  0.86953804     0.09700
H1909       H  0.88110283  0.84481242  0.81708983     0.14200
H1910       H  0.88667903  0.78523864  0.93068958     0.00000
H1911       H  0.96386144  0.79349219  0.83416665     0.14500
H1912       H  0.87416834  0.74733699  0.80486156     0.14300
C1913       C  0.76284020  0.94469244  0.81832662     0.86100
C1914       C  0.73462366  0.92029662  0.82807919    -0.54100
C1915       C  0.73125727  0.91154048  0.86904894     0.09000
C1916       C  0.75618929  0.92952786  0.89792648     0.20000
C1917       C  0.75482826  0.97459580  0.84578600    -0.54800
C1918       C  0.75158560  0.96661596  0.88742732     0.09100
C1919       C  0.79465588  0.93029335  0.83875336    -0.54400
C1920       C  0.79124360  0.92160393  0.87991995     0.09700
H1921       H  0.71931196  0.90934503  0.80364126     0.14200
H1922       H  0.75351958  0.92299212  0.93160126     0.00000
H1923       H  0.75527996  0.50034614  0.83618995     0.14500
H1924       H  0.81750896  0.92541513  0.82114511     0.14300
C1925       C  0.74591700  0.63502451  0.62963498     0.86100
C1926       C  0.71551658  0.65363546  0.61142714    -0.54100
C1927       C  0.71780811  0.66107042  0.56976410     0.09000
C1928       C  0.74998649  0.64760098  0.54904246     0.18600
C1929       C  0.74786787  0.60383202  0.60271807    -0.54800
C1930       C  0.75005068  0.61057193  0.56075857     0.09100
C1931       C  0.77686400  0.65519519  0.61633292    -0.54400
C1932       C  0.77932174  0.66192211  0.57451351     0.09700
H1933       H  0.69529929  0.66319237  0.63081448     0.14200
H1934       H  0.75156235  0.65261554  0.51488504     0.00000
H1935       H  0.74681765  0.57874712  0.61468697     0.14500
H1936       H  0.79533141  0.66393119  0.63877025     0.14300
C1937       C  0.59335752  0.77985104  0.63616313     0.86100
C1938       C  0.61475209  0.81091123  0.62849580    -0.54100
C1939       C  0.62159098  0.81809066  0.58754526     0.09000
C1940       C  0.60736067  0.79224739  0.55743014     0.20000
C1941       C  0.56182062  0.78506149  0.60899646    -0.54800
C1942       C  0.56934177  0.79124948  0.56776397     0.09100
C1943       C  0.61136892  0.75169531  0.61348543    -0.54400
C1944       C  0.62064213  0.75870092  0.57350511     0.09700
H1945       H  0.62363414  0.82623626  0.65391486     0.14200
H1946       H  0.61258269  0.79708992  0.52383072     0.00000
H1947       H  0.53616529  0.78208167  0.62033778     0.14500
H1948       H  0.61761240  0.72815059  0.62787956     0.14300
C1949       C  0.90185734  0.79573706  0.63112806     0.86100
C1950       C  0.88229236  0.76438352  0.62005874    -0.54100
C1951       C  0.87621564  0.76041582  0.57842394     0.09000
C1952       C  0.88939739  0.78882300  0.55102446     0.20000
C1953       C  0.93387552  0.79427999  0.60384065    -0.54800
C1954       C  0.92711718  0.79072181  0.56212404     0.09100
C1955       C  0.88179687  0.82421476  0.61115159    -0.54400
C1956       C  0.87409040  0.82007464  0.56992167     0.09700
H1957       H  0.87356744  0.74682228  0.64360828     0.14200
H1958       H  0.88413967  0.78595997  0.51711668     0.00000
H1959       H  0.95943171  0.79681833  0.61541973     0.14500
H1960       H  0.87196632  0.84479553  0.62888097     0.14300
C1961       C  0.75823648  0.94661697  0.63396847     0.86100
C1962       C  0.78498598  0.92496866  0.61279117    -0.54100
C1963       C  0.77780688  0.91652437  0.57271700     0.09000
C1964       C  0.74526178  0.93242746  0.55573633     0.20000
C1965       C  0.75702643  0.97705487  0.60497383    -0.54800
C1966       C  0.74982639  0.96952036  0.56430767     0.09100
C1967       C  0.72468006  0.92870239  0.62701416    -0.54400
C1968       C  0.71740645  0.92156849  0.58637352     0.09700
H1969       H  0.80710796  0.91523142  0.62868471     0.14200
H1970       H  0.74000772  0.92656683  0.52250631     0.00000
H1971       H  0.76463479  0.50198685  0.61775505     0.14500
H1972       H  0.70883327  0.92069409  0.65293306     0.14300
O1973       O  0.53309680  0.76319996  0.52200871    -0.74800
O1974       O  0.96804664  0.76077397  0.93389075    -0.74800
O1975       O  0.53660878  0.76200590  0.93767598    -0.74900
O1976       O  0.96508923  0.76238883  0.51819088    -0.74900
O1977       O  0.96520184  0.81750776  0.51635760    -0.74900
O1978       O  0.53593747  0.81709178  0.93520149    -0.74800
O1979       O  0.96742380  0.81586075  0.93184749    -0.74800
O1980       O  0.53326232  0.81830957  0.51944417    -0.74900
Ni1981     Ni  0.00075975  0.76007005  0.97795725     1.25400
Ni1982     Ni  0.00044210  0.81914067  0.97556333     1.25400
C1983       C  0.54379200  0.79102304  0.53502659     0.87400
C1984       C  0.95672330  0.78794379  0.91888684     0.87300
C1985       C  0.54800300  0.78948501  0.92340785     0.87300
C1986       C  0.95370453  0.79013385  0.53059848     0.87500
O1987       O  0.72356728  0.57142423  0.93232838    -0.74800
O1988       O  0.72451783  0.50549679  0.51877195    -0.74800
O1989       O  0.72314599  0.57233103  0.51671141    -0.74900
O1990       O  0.72439192  0.50463411  0.93444484    -0.74900
O1991       O  0.78074749  0.50522662  0.93524382    -0.74900
O1992       O  0.77948636  0.57410777  0.51634462    -0.74800
O1993       O  0.78085339  0.50737161  0.51982385    -0.74800
O1994       O  0.77994283  0.57204648  0.93208831    -0.74900
Ni1995     Ni  0.72188326  0.53844446  0.97558117     1.25400
Ni1996     Ni  0.78230328  0.53969164  0.97586970     1.25400
C1997       C  0.75164345  0.58250509  0.91820969     0.87400
C1998       C  0.74900176  0.99455452  0.53125435     0.87300
C1999       C  0.75098450  0.58445386  0.52967054     0.87300
C2000       C  0.75007252  0.99211750  0.91941962     0.87500
C2001       C  0.79542709  0.88774774  0.55477508    -0.00500
C2002       C  0.82491133  0.89298316  0.53119470    -0.12400
C2003       C  0.85026142  0.86872835  0.53032565     0.01700
C2004       C  0.84537907  0.83866351  0.55194876    -0.00600
C2005       C  0.81370926  0.83156911  0.56921152    -0.12300
C2006       C  0.78939381  0.85621994  0.57251637     0.01600
H2007       H  0.82992249  0.91724461  0.51799764     0.14600
H2008       H  0.81010434  0.80850881  0.58619546     0.14600
C2009       C  0.76231609  0.85093469  0.60204643     0.36200
C2010       C  0.88243220  0.87644913  0.01152473     0.36100
N2011       N  0.74154287  0.84772823  0.62716652    -0.44100
N2012       N  0.90834891  0.88243642  0.99659392    -0.44100
C2013       C  0.64079890  0.84853032  0.57557448    -0.00500
C2014       C  0.63388656  0.87772932  0.59722404    -0.12400
C2015       C  0.65668221  0.90404408  0.59663271     0.01700
C2016       C  0.68767598  0.90093829  0.57524863    -0.00600
C2017       C  0.69199303  0.87422550  0.54823144    -0.12300
C2018       C  0.66853894  0.84828757  0.54781706     0.01600
H2019       H  0.61141499  0.87932295  0.61646935     0.14600
H2020       H  0.71502832  0.87208227  0.53016847     0.14600
C2021       C  0.67534188  0.82061907  0.52153864     0.36200
C2022       C  0.64821616  0.93353290  0.61929545     0.36100
N2023       N  0.68064274  0.79811855  0.00073097    -0.44100
N2024       N  0.64155368  0.95722945  0.63737369    -0.44100
C2025       C  0.64907714  0.73966671  0.55579966    -0.00500
C2026       C  0.64225219  0.71027501  0.53447568    -0.12400
C2027       C  0.66635630  0.68479694  0.53350759     0.01700
C2028       C  0.69772295  0.68911835  0.55345333    -0.00600
C2029       C  0.70590061  0.71998688  0.56960473    -0.12300
C2030       C  0.68184308  0.74481822  0.57187433     0.01600
H2031       H  0.61705288  0.70586533  0.52260505     0.14600
H2032       H  0.72993047  0.72326290  0.58525962     0.14600
C2033       C  0.68989123  0.77288752  0.59725712     0.36200
C2034       C  0.65731458  0.65354638  0.51555144     0.36100
N2035       N  0.69630377  0.79479525  0.61866350    -0.44100
N2036       N  0.64999633  0.62853203  0.00100510    -0.44100
C2037       C  0.85720679  0.73160485  0.56285386    -0.00500
C2038       C  0.82805713  0.73667871  0.53883243    -0.12400
C2039       C  0.80365867  0.71169421  0.53573796     0.01700
C2040       C  0.80816027  0.68183616  0.55828070    -0.00600
C2041       C  0.84010185  0.67497966  0.57524221    -0.12300
C2042       C  0.86463999  0.69954068  0.57755067     0.01600
H2043       H  0.82302149  0.76087526  0.52548765     0.14600
H2044       H  0.84467826  0.65135386  0.59045423     0.14600
C2045       C  0.89634546  0.69192928  0.59768490     0.36200
C2046       C  0.77395834  0.71820547  0.01113014     0.36100
N2047       N  0.92177498  0.68596790  0.61381660    -0.44100
N2048       N  0.75074087  0.72390328  0.99039613    -0.44100
C2049       C  0.76612641  0.94833324  0.77071428    -0.00500
C2050       C  0.75316972  0.97601940  0.74920064    -0.12400
C2051       C  0.75119993  0.97704058  0.70519084     0.01700
C2052       C  0.76411174  0.95062958  0.68115041    -0.00600
C2053       C  0.77543263  0.92247499  0.70315841    -0.12300
C2054       C  0.77652904  0.92093811  0.74655047     0.01600
H2055       H  0.74114595  0.49591466  0.76861537     0.14600
H2056       H  0.78135804  0.90005179  0.68659243     0.14600
C2057       C  0.78602243  0.88944869  0.76492119     0.36200
C2058       C  0.73203655  0.50378350  0.68832613     0.36100
N2059       N  0.79374458  0.86424106  0.77930975    -0.44100
N2060       N  0.71695104  0.52536309  0.67352417    -0.44100
C2061       C  0.90530985  0.79831126  0.67895625    -0.00500
C2062       C  0.93555298  0.78969019  0.69965987    -0.12400
C2063       C  0.93738686  0.78726587  0.74368549     0.01700
C2064       C  0.90930748  0.79633238  0.76862876    -0.00600
C2065       C  0.87908013  0.80407389  0.74761546    -0.12300
C2066       C  0.87647350  0.80408593  0.70418917     0.01600
H2067       H  0.95721796  0.78192520  0.68175719     0.14600
H2068       H  0.85630185  0.80836302  0.76560223     0.14600
C2069       C  0.84290361  0.80792389  0.68710651     0.36200
C2070       C  0.96634720  0.77058626  0.76096879     0.36100
N2071       N  0.81584013  0.81090707  0.67406471    -0.44100
N2072       N  0.48938683  0.75631737  0.77415688    -0.44100
C2073       C  0.86222522  0.84717205  0.89873940    -0.00500
C2074       C  0.87391384  0.87948575  0.89202732    -0.12400
C2075       C  0.85164602  0.90612303  0.89329943     0.01700
C2076       C  0.81699782  0.90026605  0.90027615    -0.00600
C2077       C  0.80691627  0.86922213  0.91558273    -0.12300
C2078       C  0.82955293  0.84261204  0.91546105     0.01600
H2079       H  0.89958130  0.88349425  0.88132860     0.14600
H2080       H  0.78060542  0.86476762  0.92304109     0.14600
C2081       C  0.81764561  0.81082174  0.92962399     0.36200
C2082       C  0.86408497  0.93861827  0.88253631     0.36100
N2083       N  0.80751074  0.78587026  0.94226302    -0.44100
N2084       N  0.87396006  0.96464364  0.87370644    -0.44100
C2085       C  0.58800199  0.77595362  0.77308861    -0.00500
C2086       C  0.61432471  0.76095715  0.75098406    -0.12400
C2087       C  0.61564972  0.76052871  0.70780309     0.01700
C2088       C  0.58908636  0.77427135  0.68342762    -0.00600
C2089       C  0.56325711  0.79092857  0.70517001    -0.12300
C2090       C  0.56325024  0.79298004  0.74925364     0.01600
H2091       H  0.63635723  0.75181617  0.76736798     0.14600
H2092       H  0.54457362  0.80484141  0.68770794     0.14600
C2093       C  0.54024790  0.81591631  0.76830909     0.36200
C2094       C  0.64682656  0.74806851  0.69096411     0.36100
N2095       N  0.02203812  0.83451301  0.78340262    -0.44100
N2096       N  0.67191564  0.73723349  0.67890980    -0.44100
C2097       C  0.65685512  0.83583908  0.87542346    -0.00500
C2098       C  0.65556813  0.86101016  0.90539829    -0.12400
C2099       C  0.68152206  0.88487131  0.90750616     0.01700
C2100       C  0.70927739  0.88295673  0.87996819    -0.00600
C2101       C  0.71236053  0.85534128  0.85431809    -0.12300
C2102       C  0.68623891  0.83275237  0.85056056     0.01600
H2103       H  0.63348121  0.86324339  0.92516758     0.14600
H2104       H  0.73421137  0.85305704  0.83408061     0.14600
C2105       C  0.69016604  0.80713984  0.81983650     0.36200
C2106       C  0.67832902  0.91190349  0.93618699     0.36100
N2107       N  0.69312873  0.78718111  0.79452355    -0.44100
N2108       N  0.67599371  0.93348178  0.95941003    -0.44100
C2109       C  0.74387852  0.62801232  0.76721468    -0.00500
C2110       C  0.73774949  0.65784574  0.74559740    -0.12400
C2111       C  0.73971598  0.66042393  0.70222957     0.01700
C2112       C  0.74438199  0.63191196  0.67759914    -0.00600
C2113       C  0.75119096  0.60199743  0.69881889    -0.12300
C2114       C  0.75264720  0.60016966  0.74288011     0.01600
H2115       H  0.73373230  0.68024451  0.76314406     0.14600
H2116       H  0.75840009  0.58047024  0.68137272     0.14600
C2117       C  0.76819664  0.57119848  0.76071401     0.36200
C2118       C  0.74051693  0.69340234  0.68456089     0.36100
N2119       N  0.78181354  0.54820713  0.77421074    -0.44100
N2120       N  0.74246288  0.71987278  0.67087431    -0.44100
C2121       C  0.69080724  0.67686889  0.89511745    -0.00500
C2122       C  0.70135919  0.70780259  0.90869107    -0.12400
C2123       C  0.67868350  0.73419425  0.91027253     0.01700
C2124       C  0.64427902  0.72899750  0.90055168    -0.00600
C2125       C  0.63294916  0.69625632  0.89633773    -0.12300
C2126       C  0.65601768  0.67034134  0.89234709     0.01600
H2127       H  0.72808194  0.71250856  0.91238117     0.14600
H2128       H  0.60646230  0.69161600  0.89019368     0.14600
C2129       C  0.64370854  0.63793074  0.88202896     0.36200
C2130       C  0.69318119  0.76632576  0.91587133     0.36100
N2131       N  0.63383671  0.61193778  0.87377163    -0.44100
N2132       N  0.70737395  0.79090612  0.92076688    -0.44100
C2133       C  0.79830885  0.68946135  0.88060355    -0.00500
C2134       C  0.82811091  0.68439451  0.90359282    -0.12400
C2135       C  0.85330679  0.70895624  0.90446428     0.01700
C2136       C  0.84857039  0.73867484  0.88193218    -0.00600
C2137       C  0.81736462  0.74479794  0.86283220    -0.12300
C2138       C  0.79236768  0.72068315  0.86209316     0.01600
H2139       H  0.83278870  0.66052102  0.91803314     0.14600
H2140       H  0.81346753  0.76779017  0.84580590     0.14600
C2141       C  0.76198832  0.72752070  0.83871263     0.36200
C2142       C  0.88468471  0.70227859  0.92571050     0.36100
N2143       N  0.73760149  0.73264235  0.81992808    -0.44100
N2144       N  0.90983255  0.69705317  0.94289244    -0.44100
loop_ 
_geom_bond_atom_site_label_1 
_geom_bond_atom_site_label_2 
_geom_bond_distance 
_geom_bond_site_symmetry_2 
_ccdc_geom_bond_type 
C1            C2   1.534       .  S
C1            C7   1.544       .  S
C1            C5   1.539       .  S
C1          C233   1.540       .  S
C2            H9   1.087       .  S
C2            C3   1.361       .  D
C3            C4   1.537       .  S
C3          C257   1.490       .  S
C4            C8   1.537       .  S
C4            C6   1.539       .  S
C4           H10   1.111       .  S
C5           H11   1.081       .  S
C5            C6   1.369       .  D
C6          C121   1.456       .  S
C7           H12   1.087       .  S
C7            C8   1.365       .  D
C8          C245   1.483       .  S
C13          C14   1.543       .  S
C13          C19   1.529       .  S
C13          C17   1.529       .  S
C13         C209   1.536       .  S
C14          H21   1.087       .  S
C14          C15   1.364       .  D
C15          C16   1.541       .  S
C15         C248   1.493       .  S
C16          C20   1.548       .  S
C16          C18   1.559       .  S
C16          H22   1.110       .  S
C17          H23   1.082       .  S
C17          C18   1.367       .  D
C18         C109   1.468       .  S
C19          H24   1.088       .  S
C19          C20   1.362       .  D
C20         C221   1.491       .  S
C25          C26   1.542       .  S
C25          C31   1.527       .  S
C25          C29   1.541       .  S
C25         C188   1.545       .  S
C26          H33   1.087       .  S
C26          C27   1.367       .  D
C27          C28   1.538       .  S
C27         C197   1.490       .  S
C28          C32   1.543       .  S
C28          C30   1.549       .  S
C28          H34   1.111       .  S
C29          H35   1.082       .  S
C29          C30   1.371       .  D
C30         C108   1.471       .  S
C31          H36   1.088       .  S
C31          C32   1.361       .  D
C32         C260   1.487       .  S
C37          C38   1.525       .  S
C37          C43   1.536       .  S
C37          C41   1.539       .  S
C37         C173   1.537       .  S
C38          H45   1.088       .  S
C38          C39   1.361       .  D
C39          C40   1.539       .  S
C39         C224   1.486       .  S
C40          C44   1.538       .  S
C40          C42   1.547       .  S
C40          H46   1.111       .  S
C41         H583   1.084       .  S
C41          C42   1.373       .  D
C42         C124   1.462       .  S
C43          H48   1.086       .  S
C43          C44   1.365       .  D
C44         C200   1.485       .  S
H47         C577   1.085       .  S
C49          C50   1.535       .  S
C49          C55   1.531       .  S
C49          C53   1.538       .  S
C49         C236   1.537       .  S
C50          H57   1.087       .  S
C50          C51   1.364       .  D
C51          C52   1.547       .  S
C51         C152   1.483       .  S
C52          C56   1.541       .  S
C52          C54   1.549       .  S
C52          H58   1.110       .  S
C53          H59   1.084       .  S
C53          C54   1.369       .  D
C54         C123   1.465       .  S
C55          H60   1.087       .  S
C55          C56   1.364       .  D
C56         C164   1.495       .  S
C61          C62   1.528       .  S
C61          C67   1.535       .  S
C61          C65   1.539       .  S
C61         C212   1.531       .  S
C62          H69   1.087       .  S
C62          C63   1.364       .  D
C63          C64   1.549       .  S
C63         C137   1.500       .  S
C64          C68   1.545       .  S
C64          C66   1.542       .  S
C64          H70   1.108       .  S
C65          H71   1.085       .  S
C65          C66   1.370       .  D
C66         C107   1.460       .  S
C67          H72   1.087       .  S
C67          C68   1.360       .  D
C68         C149   1.487       .  S
C73          C74   1.534       .  S
C73          C79   1.537       .  S
C73          C77   1.542       .  S
C73         C185   1.543       .  S
C74          H81   1.087       .  S
C74          C75   1.365       .  D
C75          C76   1.534       .  S
C75         C161   1.485       .  S
C76          C80   1.536       .  S
C76          C78   1.542       .  S
C76          H82   1.111       .  S
C77          H83   1.085       .  S
C77          C78   1.371       .  D
C78         C110   1.463       .  S
C79          H84   1.086       .  S
C79          C80   1.366       .  D
C80         C128   1.480       .  S
C85          C86   1.539       .  S
C85          C91   1.534       .  S
C85          C89   1.538       .  S
C85         C176   1.540       .  S
C86          H93   1.086       .  S
C86          C87   1.361       .  D
C87          C88   1.538       .  S
C87         C125   1.481       .  S
C88          C92   1.535       .  S
C88          C90   1.541       .  S
C88          H94   1.111       .  S
C89         H631   1.084       .  S
C89          C90   1.370       .  D
C90         C122   1.458       .  S
C91          H96   1.086       .  S
C91          C92   1.366       .  D
C92         C140   1.492       .  S
H95         C625   1.084   1_545  S
O97         C107   1.280       .  A
O97       Ni1445   1.914   1_454  S
O98         C108   1.280       .  A
O98        Ni105   1.923       .  S
O99         C109   1.281       .  A
O99       Ni1177   1.922   1_455  S
O100        C110   1.280       .  A
O100       Ni373   1.918   1_554  S
O101        C110   1.279       .  A
O101       Ni374   1.914   1_554  S
O102        C109   1.280       .  A
O102      Ni1178   1.917   1_455  S
O103        C108   1.281       .  A
O103       Ni106   1.920       .  S
O104        C107   1.279       .  A
O104      Ni1446   1.914   1_454  S
Ni105      O1437   1.914       .  S
Ni105      O1171   1.922       .  S
Ni105       O368   1.918       .  S
Ni105      Ni106   2.394       .  S
Ni106       O369   1.914       .  S
Ni106      O1174   1.918       .  S
Ni106      O1444   1.914       .  S
O111        C121   1.280       .  A
O111       Ni119   1.914       .  S
O112        C658   1.280   1_545  A
O112       Ni387   1.915   1_554  S
O113        C123   1.280       .  A
O113       Ni387   1.918   1_554  S
O114        C660   1.278   1_545  A
O114       Ni119   1.915       .  S
O115        C660   1.281   1_545  A
O115       Ni120   1.919       .  S
O116        C123   1.280       .  A
O116       Ni388   1.918   1_554  S
O117        C658   1.278   1_545  A
O117       Ni388   1.909   1_554  S
O118        C121   1.277       .  A
O118       Ni120   1.908       .  S
Ni119       O380   1.915       .  S
Ni119       O381   1.918       .  S
Ni119      Ni120   2.396       .  S
Ni120       O384   1.918       .  S
Ni120       O385   1.909       .  S
C122        O648   1.279       .  A
C122        O653   1.279       .  A
C124        O650   1.278       .  A
C124        O651   1.281       .  A
C125        C126   1.405       .  A
C125        C130   1.412       .  A
C126        C127   1.408       .  A
C126        H131   1.084       .  S
C127        C128   1.409       .  A
C127        C402   1.442       .  S
C128        C129   1.400       .  A
C129        C130   1.394       .  A
C129        H132   1.085       .  S
C130        C133   1.445       .  S
C133        N135   1.157       .  T
C134        C395   1.442       .  S
C134        N136   1.157       .  T
C137        C138   1.406       .  A
C137        C142   1.410       .  A
C138        C139   1.398       .  A
C138        H143   1.085       .  S
C139        C140   1.412       .  A
C139        C146   1.445       .  S
C140        C141   1.405       .  A
C141        C142   1.406       .  A
C141        H144   1.084       .  S
C142        C145   1.433       .  S
C145        N415   1.154   1_554  T
C146        N148   1.157       .  T
N147        C413   1.154       .  T
C149        C150   1.406       .  A
C149        C154   1.408       .  A
C150        C151   1.410       .  A
C150        H155   1.084       .  S
C151        C152   1.411       .  A
C151        C158   1.442       .  S
C152        C153   1.397       .  A
C153        C154   1.392       .  A
C153        H156   1.085       .  S
C154        C157   1.434       .  S
C157        N159   1.153       .  T
C158        N428   1.157       .  T
N160        C426   1.157       .  T
C161        C162   1.403       .  A
C161        C166   1.410       .  A
C162        C163   1.406       .  A
C162        H167   1.084       .  S
C163        C164   1.414       .  A
C163        C438   1.439       .  S
C164        C165   1.406       .  A
C165        C166   1.396       .  A
C165        H168   1.085       .  S
C166        C169   1.445       .  S
C169        N171   1.157       .  T
C170        C431   1.439       .  S
C170        N172   1.157       .  T
C173        C174   1.409       .  A
C173        C178   1.421       .  A
C174        C175   1.412       .  A
C174        H715   1.080       .  S
C175        C176   1.421       .  A
C175        C718   1.442       .  S
C176        C177   1.408       .  A
C177        C178   1.390       .  A
C177        H180   1.083       .  S
C178        C181   1.449       .  S
H179        C710   1.080       .  S
C181        N183   1.158       .  T
C182        C711   1.442   1_545  S
C182        N184   1.157       .  T
C185        C186   1.413       .  A
C185        C190   1.421       .  A
C186        C187   1.413       .  A
C186        H191   1.081       .  S
C187        C188   1.420       .  A
C187        C194   1.441       .  S
C188        C189   1.408       .  A
C189        C190   1.393       .  A
C189        H192   1.085       .  S
C190        C193   1.446       .  S
C193        N195   1.157       .  T
C194       N1268   1.158       .  T
N196       C1266   1.158       .  T
C197        C198   1.405       .  A
C197        C202   1.413       .  A
C198        C199   1.398       .  A
C198        H203   1.085       .  S
C199        C200   1.410       .  A
C199        C206   1.444       .  S
C200        C201   1.403       .  A
C201        C202   1.405       .  A
C201        H204   1.084       .  S
C202        C205   1.440       .  S
C205        N207   1.157       .  T
C206        N208   1.157       .  T
C209        C210   1.401       .  A
C209        C214   1.420       .  A
C210        C211   1.380       .  A
C210        H215   1.079       .  S
C211        C212   1.416       .  A
C211        C218   1.445       .  S
C212        C213   1.413       .  A
C213        C214   1.414       .  A
C213        H216   1.082       .  S
C214        C217   1.441       .  S
C217       N1291   1.158       .  T
C218        N220   1.156       .  T
N219       C1289   1.158       .  T
C221        C222   1.408       .  A
C221        C226   1.415       .  A
C222        C223   1.415       .  A
C222        H227   1.084       .  S
C223        C224   1.412       .  A
C223        C230   1.442       .  S
C224        C225   1.397       .  A
C225        C226   1.387       .  A
C225        H228   1.086       .  S
C226        C229   1.442       .  S
C229        N231   1.155       .  T
C230        N232   1.157       .  T
C233        C234   1.408       .  A
C233        C238   1.420       .  A
C234        C235   1.390       .  A
C234        H239   1.084       .  S
C235        C236   1.418       .  A
C235        C242   1.447       .  S
C236        C237   1.411       .  A
C237        C238   1.412       .  A
C237        H240   1.080       .  S
C238        C241   1.440       .  S
C241        N243   1.157       .  T
C242        N244   1.157       .  T
C245        C246   1.394       .  A
C245        C250   1.409       .  A
C246        C247   1.398       .  A
C246        H251   1.084       .  S
C247        C248   1.417       .  A
C247        C254   1.435       .  S
C248        C249   1.408       .  A
C249        C250   1.401       .  A
C249        H252   1.085       .  S
C250        C253   1.443       .  S
C253        N255   1.157       .  T
C254        N256   1.156       .  T
C257        C258   1.408       .  A
C257        C262   1.411       .  A
C258        C259   1.413       .  A
C258        H263   1.084       .  S
C259        C260   1.410       .  A
C259        C266   1.442       .  S
C260        C261   1.402       .  A
C261        C262   1.393       .  A
C261        H264   1.086       .  S
C262        C265   1.442       .  S
C265        N267   1.156       .  T
C266        N268   1.157       .  T
C269        C270   1.534       .  S
C269        C275   1.544       .  S
C269        C273   1.539       .  S
C269        C501   1.540       .  S
C270        H277   1.087       .  S
C270        C271   1.361       .  D
C271        C272   1.537       .  S
C271        C525   1.490       .  S
C272        C276   1.537       .  S
C272        C274   1.539       .  S
C272        H278   1.111       .  S
C273        H279   1.081       .  S
C273        C274   1.369       .  D
C274        C389   1.456       .  S
C275        H280   1.087       .  S
C275        C276   1.365       .  D
C276        C513   1.483       .  S
C281        C282   1.543       .  S
C281        C287   1.529       .  S
C281        C285   1.529       .  S
C281        C477   1.536       .  S
C282        H289   1.087       .  S
C282        C283   1.364       .  D
C283        C284   1.541       .  S
C283        C516   1.493       .  S
C284        C288   1.548       .  S
C284        C286   1.559       .  S
C284        H290   1.110       .  S
C285        H291   1.082       .  S
C285        C286   1.367       .  D
C286        C377   1.468       .  S
C287        H292   1.088       .  S
C287        C288   1.362       .  D
C288        C489   1.491       .  S
C293        C294   1.542       .  S
C293        C299   1.527       .  S
C293        C297   1.541       .  S
C293        C456   1.545       .  S
C294        H301   1.087       .  S
C294        C295   1.367       .  D
C295        C296   1.538       .  S
C295        C465   1.490       .  S
C296        C300   1.543       .  S
C296        C298   1.549       .  S
C296        H302   1.111       .  S
C297        H303   1.082       .  S
C297        C298   1.371       .  D
C298        C376   1.471       .  S
C299        H304   1.088       .  S
C299        C300   1.361       .  D
C300        C528   1.487       .  S
C305        C306   1.525       .  S
C305        C311   1.536       .  S
C305        C309   1.539       .  S
C305        C441   1.537       .  S
C306        H313   1.088       .  S
C306        C307   1.361       .  D
C307        C308   1.539       .  S
C307        C492   1.486       .  S
C308        C312   1.538       .  S
C308        C310   1.547       .  S
C308        H314   1.111       .  S
C309        H851   1.084       .  S
C309        C310   1.373       .  D
C310        C392   1.462       .  S
C311        H316   1.086       .  S
C311        C312   1.365       .  D
C312        C468   1.485       .  S
H315        C845   1.085       .  S
C317        C318   1.535       .  S
C317        C323   1.531       .  S
C317        C321   1.538       .  S
C317        C504   1.537       .  S
C318        H325   1.087       .  S
C318        C319   1.364       .  D
C319        C320   1.547       .  S
C319        C420   1.483       .  S
C320        C324   1.541       .  S
C320        C322   1.549       .  S
C320        H326   1.110       .  S
C321        H327   1.084       .  S
C321        C322   1.369       .  D
C322        C391   1.465       .  S
C323        H328   1.087       .  S
C323        C324   1.364       .  D
C324        C432   1.495       .  S
C329        C330   1.528       .  S
C329        C335   1.535       .  S
C329        C333   1.539       .  S
C329        C480   1.531       .  S
C330        H337   1.087       .  S
C330        C331   1.364       .  D
C331        C332   1.549       .  S
C331        C405   1.500       .  S
C332        C336   1.545       .  S
C332        C334   1.542       .  S
C332        H338   1.108       .  S
C333        H339   1.085       .  S
C333        C334   1.370       .  D
C334        C375   1.460       .  S
C335        H340   1.087       .  S
C335        C336   1.360       .  D
C336        C417   1.487       .  S
C341        C342   1.534       .  S
C341        C347   1.537       .  S
C341        C345   1.542       .  S
C341        C453   1.543       .  S
C342        H349   1.087       .  S
C342        C343   1.365       .  D
C343        C344   1.534       .  S
C343        C429   1.485       .  S
C344        C348   1.536       .  S
C344        C346   1.542       .  S
C344        H350   1.111       .  S
C345        H351   1.085       .  S
C345        C346   1.371       .  D
C346        C378   1.463       .  S
C347        H352   1.086       .  S
C347        C348   1.366       .  D
C348        C396   1.480       .  S
C353        C354   1.539       .  S
C353        C359   1.534       .  S
C353        C357   1.538       .  S
C353        C444   1.540       .  S
C354        H361   1.086       .  S
C354        C355   1.361       .  D
C355        C356   1.538       .  S
C355        C393   1.481       .  S
C356        C360   1.535       .  S
C356        C358   1.541       .  S
C356        H362   1.111       .  S
C357        H899   1.084       .  S
C357        C358   1.370       .  D
C358        C390   1.458       .  S
C359        H364   1.086       .  S
C359        C360   1.366       .  D
C360        C408   1.492       .  S
H363        C893   1.084   1_545  S
O365        C375   1.280       .  A
O365      Ni1177   1.914   1_455  S
O366        C376   1.280       .  A
O366       Ni373   1.923       .  S
O367        C377   1.281       .  A
O367      Ni1445   1.922   1_455  S
O368        C378   1.280       .  A
O369        C378   1.279       .  A
O370        C377   1.280       .  A
O370      Ni1446   1.917   1_455  S
O371        C376   1.281       .  A
O371       Ni374   1.920       .  S
O372        C375   1.279       .  A
O372      Ni1178   1.914   1_455  S
Ni373      O1169   1.914   1_556  S
Ni373      O1439   1.923       .  S
Ni373      Ni374   2.394       .  S
Ni374      O1442   1.918       .  S
Ni374      O1176   1.914   1_556  S
O379        C389   1.280       .  A
O379       Ni387   1.914       .  S
O380        C926   1.280   1_545  A
O381        C391   1.280       .  A
O382        C928   1.278   1_545  A
O382       Ni387   1.915       .  S
O383        C928   1.281   1_545  A
O383       Ni388   1.919       .  S
O384        C391   1.280       .  A
O385        C926   1.278   1_545  A
O386        C389   1.277       .  A
O386       Ni388   1.908       .  S
Ni387      Ni388   2.396       .  S
C390        O916   1.279       .  A
C390        O921   1.279       .  A
C392        O918   1.278       .  A
C392        O919   1.281       .  A
C393        C394   1.405       .  A
C393        C398   1.412       .  A
C394        C395   1.408       .  A
C394        H399   1.084       .  S
C395        C396   1.409       .  A
C396        C397   1.400       .  A
C397        C398   1.394       .  A
C397        H400   1.085       .  S
C398        C401   1.445       .  S
C401        N403   1.157       .  T
C402        N404   1.157   1_554  T
C405        C406   1.406       .  A
C405        C410   1.410       .  A
C406        C407   1.398       .  A
C406        H411   1.085       .  S
C407        C408   1.412       .  A
C407        C414   1.445       .  S
C408        C409   1.405       .  A
C409        C410   1.406       .  A
C409        H412   1.084       .  S
C410        C413   1.433       .  S
C414        N416   1.157       .  T
C417        C418   1.406       .  A
C417        C422   1.408       .  A
C418        C419   1.410       .  A
C418        H423   1.084       .  S
C419        C420   1.411       .  A
C419        C426   1.442       .  S
C420        C421   1.397       .  A
C421        C422   1.392       .  A
C421        H424   1.085       .  S
C422        C425   1.434       .  S
C425        N427   1.153       .  T
C429        C430   1.403       .  A
C429        C434   1.410       .  A
C430        C431   1.406       .  A
C430        H435   1.084       .  S
C431        C432   1.414       .  A
C432        C433   1.406       .  A
C433        C434   1.396       .  A
C433        H436   1.085       .  S
C434        C437   1.445       .  S
C437        N439   1.157       .  T
C438        N440   1.157   1_554  T
C441        C442   1.409       .  A
C441        C446   1.421       .  A
C442        C443   1.412       .  A
C442        H983   1.080       .  S
C443        C444   1.421       .  A
C443        C986   1.442       .  S
C444        C445   1.408       .  A
C445        C446   1.390       .  A
C445        H448   1.083       .  S
C446        C449   1.449       .  S
H447        C978   1.080       .  S
C449        N451   1.158       .  T
C450        C979   1.442   1_545  S
C450        N452   1.157       .  T
C453        C454   1.413       .  A
C453        C458   1.421       .  A
C454        C455   1.413       .  A
C454        H459   1.081       .  S
C455        C456   1.420       .  A
C455        C462   1.441       .  S
C456        C457   1.408       .  A
C457        C458   1.393       .  A
C457        H460   1.085       .  S
C458        C461   1.446       .  S
C461        N463   1.157       .  T
C462       N1536   1.158       .  T
N464       C1534   1.158       .  T
C465        C466   1.405       .  A
C465        C470   1.413       .  A
C466        C467   1.398       .  A
C466        H471   1.085       .  S
C467        C468   1.410       .  A
C467        C474   1.444       .  S
C468        C469   1.403       .  A
C469        C470   1.405       .  A
C469        H472   1.084       .  S
C470        C473   1.440       .  S
C473        N475   1.157       .  T
C474        N476   1.157       .  T
C477        C478   1.401       .  A
C477        C482   1.420       .  A
C478        C479   1.380       .  A
C478        H483   1.079       .  S
C479        C480   1.416       .  A
C479        C486   1.445       .  S
C480        C481   1.413       .  A
C481        C482   1.414       .  A
C481        H484   1.082       .  S
C482        C485   1.441       .  S
C485       N1559   1.158       .  T
C486        N488   1.156       .  T
N487       C1557   1.158       .  T
C489        C490   1.408       .  A
C489        C494   1.415       .  A
C490        C491   1.415       .  A
C490        H495   1.084       .  S
C491        C492   1.412       .  A
C491        C498   1.442       .  S
C492        C493   1.397       .  A
C493        C494   1.387       .  A
C493        H496   1.086       .  S
C494        C497   1.442       .  S
C497        N499   1.155       .  T
C498        N500   1.157       .  T
C501        C502   1.408       .  A
C501        C506   1.420       .  A
C502        C503   1.390       .  A
C502        H507   1.084       .  S
C503        C504   1.418       .  A
C503        C510   1.447       .  S
C504        C505   1.411       .  A
C505        C506   1.412       .  A
C505        H508   1.080       .  S
C506        C509   1.440       .  S
C509        N511   1.157       .  T
C510        N512   1.157       .  T
C513        C514   1.394       .  A
C513        C518   1.409       .  A
C514        C515   1.398       .  A
C514        H519   1.084       .  S
C515        C516   1.417       .  A
C515        C522   1.435       .  S
C516        C517   1.408       .  A
C517        C518   1.401       .  A
C517        H520   1.085       .  S
C518        C521   1.443       .  S
C521        N523   1.157       .  T
C522        N524   1.156       .  T
C525        C526   1.408       .  A
C525        C530   1.411       .  A
C526        C527   1.413       .  A
C526        H531   1.084       .  S
C527        C528   1.410       .  A
C527        C534   1.442       .  S
C528        C529   1.402       .  A
C529        C530   1.393       .  A
C529        H532   1.086       .  S
C530        C533   1.442       .  S
C533        N535   1.156       .  T
C534        N536   1.157       .  T
C537        C538   1.533       .  S
C537        C543   1.545       .  S
C537        C541   1.540       .  S
C537        C769   1.542       .  S
C538        H545   1.088       .  S
C538        C539   1.360       .  D
C539        C540   1.536       .  S
C539        C793   1.485       .  S
C540        C544   1.534       .  S
C540        C542   1.539       .  S
C540        H546   1.111       .  S
C541        H547   1.080       .  S
C541        C542   1.368       .  D
C542        C657   1.458       .  S
C543        H548   1.087       .  S
C543        C544   1.367       .  D
C544        C781   1.482       .  S
C549        C550   1.543       .  S
C549        C555   1.525       .  S
C549        C553   1.526       .  S
C549        C745   1.534       .  S
C550        H557   1.086       .  S
C550        C551   1.361       .  D
C551        C552   1.539       .  S
C551        C784   1.491       .  S
C552        C556   1.547       .  S
C552        C554   1.558       .  S
C552        H558   1.111       .  S
C553        H559   1.085       .  S
C553        C554   1.369       .  D
C554        C645   1.462       .  S
C555        H560   1.087       .  S
C555        C556   1.362       .  D
C556        C757   1.490       .  S
C561        C562   1.541       .  S
C561        C567   1.529       .  S
C561        C565   1.542       .  S
C561        C724   1.543       .  S
C562        H569   1.087       .  S
C562        C563   1.367       .  D
C563        C564   1.536       .  S
C563        C733   1.487       .  S
C564        C568   1.540       .  S
C564        C566   1.545       .  S
C564        H570   1.111       .  S
C565        H571   1.082       .  S
C565        C566   1.371       .  D
C566        C644   1.466       .  S
C567        H572   1.088       .  S
C567        C568   1.361       .  D
C568        C796   1.483       .  S
C573        C574   1.522       .  S
C573        C579   1.534       .  S
C573        C577   1.538       .  S
C573        C709   1.533       .  S
C574        H581   1.088       .  S
C574        C575   1.360       .  D
C575        C576   1.541       .  S
C575        C760   1.488       .  S
C576        C580   1.539       .  S
C576        C578   1.548       .  S
C576        H582   1.111       .  S
C577        C578   1.373       .  D
C578        C660   1.463       .  S
C579        H584   1.086       .  S
C579        C580   1.365       .  D
C580        C736   1.485       .  S
C585        C586   1.534       .  S
C585        C591   1.531       .  S
C585        C589   1.539       .  S
C585        C772   1.539       .  S
C586        H593   1.087       .  S
C586        C587   1.366       .  D
C587        C588   1.540       .  S
C587        C688   1.479       .  S
C588        C592   1.537       .  S
C588        C590   1.543       .  S
C588        H594   1.110       .  S
C589        H595   1.084       .  S
C589        C590   1.369       .  D
C590        C659   1.461       .  S
C591        H596   1.087       .  S
C591        C592   1.365       .  D
C592        C700   1.489       .  S
C597        C598   1.535       .  S
C597        C603   1.535       .  S
C597        C601   1.536       .  S
C597        C748   1.535       .  S
C598        H605   1.087       .  S
C598        C599   1.365       .  D
C599        C600   1.538       .  S
C599        C673   1.496       .  S
C600        C604   1.542       .  S
C600        C602   1.543       .  S
C600        H606   1.109       .  S
C601        H607   1.086       .  S
C601        C602   1.372       .  D
C602        C643   1.457       .  S
C603        H608   1.084       .  S
C603        C604   1.357       .  D
C604        C685   1.482       .  S
C609        C610   1.533       .  S
C609        C615   1.536       .  S
C609        C613   1.541       .  S
C609        C721   1.540       .  S
C610        H617   1.087       .  S
C610        C611   1.364       .  D
C611        C612   1.531       .  S
C611        C697   1.481       .  S
C612        C616   1.535       .  S
C612        C614   1.539       .  S
C612        H618   1.111       .  S
C613        H619   1.084       .  S
C613        C614   1.370       .  D
C614        C646   1.458       .  S
C615        H620   1.086       .  S
C615        C616   1.365       .  D
C616        C664   1.479       .  S
C621        C622   1.539       .  S
C621        C627   1.533       .  S
C621        C625   1.536       .  S
C621        C712   1.537       .  S
C622        H629   1.086       .  S
C622        C623   1.360       .  D
C623        C624   1.539       .  S
C623        C661   1.481       .  S
C624        C628   1.537       .  S
C624        C626   1.542       .  S
C624        H630   1.111       .  S
C625        C626   1.369       .  D
C626        C658   1.458       .  S
C627        H632   1.086       .  S
C627        C628   1.365       .  D
C628        C676   1.490       .  S
O633        C643   1.279       .  A
O633      Ni1981   1.909   1_554  S
O634        C644   1.279       .  A
O634       Ni641   1.916       .  S
O635        C645   1.281       .  A
O635      Ni1713   1.918       .  S
O636        C646   1.279       .  A
O636       Ni909   1.914   1_554  S
O637        C646   1.279       .  A
O637       Ni910   1.911   1_554  S
O638        C645   1.278       .  A
O638      Ni1714   1.914       .  S
O639        C644   1.282       .  A
O639       Ni642   1.921       .  S
O640        C643   1.279       .  A
O640      Ni1982   1.915   1_554  S
Ni641      O1973   1.909       .  S
Ni641      O1707   1.918       .  S
Ni641       O904   1.914       .  S
Ni641      Ni642   2.396       .  S
Ni642       O905   1.911       .  S
Ni642      O1710   1.914       .  S
Ni642      O1980   1.915       .  S
O647        C657   1.280       .  A
O647       Ni655   1.914       .  S
O648       Ni923   1.914   1_554  S
O649        C659   1.279       .  A
O649       Ni923   1.913   1_554  S
O650       Ni655   1.913       .  S
O651       Ni656   1.919       .  S
O652        C659   1.280       .  A
O652       Ni924   1.917   1_554  S
O653       Ni924   1.912   1_554  S
O654        C657   1.278       .  A
O654       Ni656   1.910       .  S
Ni655       O916   1.914       .  S
Ni655       O917   1.913       .  S
Ni655      Ni656   2.396       .  S
Ni656       O920   1.917       .  S
Ni656       O921   1.912       .  S
C661        C662   1.405       .  A
C661        C666   1.413       .  A
C662        C663   1.407       .  A
C662        H667   1.084       .  S
C663        C664   1.408       .  A
C663        C938   1.442       .  S
C664        C665   1.400       .  A
C665        C666   1.394       .  A
C665        H668   1.085       .  S
C666        C669   1.444       .  S
C669        N671   1.156       .  T
C670        C931   1.442       .  S
C670        N672   1.157       .  T
C673        C674   1.405       .  A
C673        C678   1.413       .  A
C674        C675   1.398       .  A
C674        H679   1.085       .  S
C675        C676   1.412       .  A
C675        C682   1.444       .  S
C676        C677   1.403       .  A
C677        C678   1.403       .  A
C677        H680   1.084       .  S
C678        C681   1.435       .  S
C681        N951   1.154       .  T
C682        N684   1.157       .  T
N683        C949   1.154       .  T
C685        C686   1.406       .  A
C685        C690   1.413       .  A
C686        C687   1.408       .  A
C686        H691   1.084       .  S
C687        C688   1.410       .  A
C687        C694   1.442       .  S
C688        C689   1.397       .  A
C689        C690   1.390       .  A
C689        H692   1.085       .  S
C690        C693   1.441       .  S
C693        N695   1.155       .  T
C694        N964   1.157       .  T
N696        C962   1.157       .  T
C697        C698   1.402       .  A
C697        C702   1.409       .  A
C698        C699   1.404       .  A
C698        H703   1.084       .  S
C699        C700   1.414       .  A
C699        C974   1.440       .  S
C700        C701   1.405       .  A
C701        C702   1.394       .  A
C701        H704   1.085       .  S
C702        C705   1.445       .  S
C705        N707   1.157       .  T
C706        C967   1.440       .  S
C706        N708   1.157       .  T
C709        C710   1.408       .  A
C709        C714   1.421       .  A
C710        C711   1.409       .  A
C711        C712   1.421       .  A
C712        C713   1.408       .  A
C713        C714   1.389       .  A
C713        H716   1.083       .  S
C714        C717   1.450       .  S
C717        N719   1.158       .  T
C718        N720   1.157       .  T
C721        C722   1.412       .  A
C721        C726   1.420       .  A
C722        C723   1.412       .  A
C722        H727   1.081       .  S
C723        C724   1.420       .  A
C723        C730   1.440       .  S
C724        C725   1.408       .  A
C725        C726   1.392       .  A
C725        H728   1.085       .  S
C726        C729   1.447       .  S
C729        N731   1.157       .  T
C730       N1804   1.157       .  T
N732       C1802   1.158       .  T
C733        C734   1.404       .  A
C733        C738   1.412       .  A
C734        C735   1.396       .  A
C734        H739   1.085       .  S
C735        C736   1.411       .  A
C735        C742   1.444       .  S
C736        C737   1.403       .  A
C737        C738   1.404       .  A
C737        H740   1.084       .  S
C738        C741   1.441       .  S
C741        N743   1.157       .  T
C742        N744   1.157       .  T
C745        C746   1.403       .  A
C745        C750   1.418       .  A
C746        C747   1.382       .  A
C746        H751   1.082       .  S
C747        C748   1.421       .  A
C747        C754   1.442       .  S
C748        C749   1.414       .  A
C749        C750   1.413       .  A
C749        H752   1.083       .  S
C750        C753   1.442       .  S
C753       N1827   1.158       .  T
C754        N756   1.155       .  T
N755       C1825   1.158       .  T
C757        C758   1.409       .  A
C757        C762   1.416       .  A
C758        C759   1.414       .  A
C758        H763   1.084       .  S
C759        C760   1.412       .  A
C759        C766   1.442       .  S
C760        C761   1.400       .  A
C761        C762   1.388       .  A
C761        H764   1.086       .  S
C762        C765   1.446       .  S
C765        N767   1.157       .  T
C766        N768   1.157       .  T
C769        C770   1.408       .  A
C769        C774   1.421       .  A
C770        C771   1.392       .  A
C770        H775   1.084       .  S
C771        C772   1.418       .  A
C771        C778   1.446       .  S
C772        C773   1.410       .  A
C773        C774   1.411       .  A
C773        H776   1.080       .  S
C774        C777   1.440       .  S
C777        N779   1.157       .  T
C778        N780   1.157       .  T
C781        C782   1.396       .  A
C781        C786   1.407       .  A
C782        C783   1.399       .  A
C782        H787   1.083       .  S
C783        C784   1.415       .  A
C783        C790   1.437       .  S
C784        C785   1.409       .  A
C785        C786   1.400       .  A
C785        H788   1.085       .  S
C786        C789   1.443       .  S
C789        N791   1.157       .  T
C790        N792   1.156       .  T
C793        C794   1.406       .  A
C793        C798   1.412       .  A
C794        C795   1.410       .  A
C794        H799   1.084       .  S
C795        C796   1.410       .  A
C795        C802   1.442       .  S
C796        C797   1.401       .  A
C797        C798   1.392       .  A
C797        H800   1.086       .  S
C798        C801   1.443       .  S
C801        N803   1.156       .  T
C802        N804   1.157       .  T
C805        C806   1.533       .  S
C805        C811   1.545       .  S
C805        C809   1.540       .  S
C805       C1037   1.542       .  S
C806        H813   1.088       .  S
C806        C807   1.360       .  D
C807        C808   1.536       .  S
C807       C1061   1.485       .  S
C808        C812   1.534       .  S
C808        C810   1.539       .  S
C808        H814   1.111       .  S
C809        H815   1.080       .  S
C809        C810   1.368       .  D
C810        C925   1.458       .  S
C811        H816   1.087       .  S
C811        C812   1.367       .  D
C812       C1049   1.482       .  S
C817        C818   1.543       .  S
C817        C823   1.525       .  S
C817        C821   1.526       .  S
C817       C1013   1.534       .  S
C818        H825   1.086       .  S
C818        C819   1.361       .  D
C819        C820   1.539       .  S
C819       C1052   1.491       .  S
C820        C824   1.547       .  S
C820        C822   1.558       .  S
C820        H826   1.111       .  S
C821        H827   1.085       .  S
C821        C822   1.369       .  D
C822        C913   1.462       .  S
C823        H828   1.087       .  S
C823        C824   1.362       .  D
C824       C1025   1.490       .  S
C829        C830   1.541       .  S
C829        C835   1.529       .  S
C829        C833   1.542       .  S
C829        C992   1.543       .  S
C830        H837   1.087       .  S
C830        C831   1.367       .  D
C831        C832   1.536       .  S
C831       C1001   1.487       .  S
C832        C836   1.540       .  S
C832        C834   1.545       .  S
C832        H838   1.111       .  S
C833        H839   1.082       .  S
C833        C834   1.371       .  D
C834        C912   1.466       .  S
C835        H840   1.088       .  S
C835        C836   1.361       .  D
C836       C1064   1.483       .  S
C841        C842   1.522       .  S
C841        C847   1.534       .  S
C841        C845   1.538       .  S
C841        C977   1.533       .  S
C842        H849   1.088       .  S
C842        C843   1.360       .  D
C843        C844   1.541       .  S
C843       C1028   1.488       .  S
C844        C848   1.539       .  S
C844        C846   1.548       .  S
C844        H850   1.111       .  S
C845        C846   1.373       .  D
C846        C928   1.463       .  S
C847        H852   1.086       .  S
C847        C848   1.365       .  D
C848       C1004   1.485       .  S
C853        C854   1.534       .  S
C853        C859   1.531       .  S
C853        C857   1.539       .  S
C853       C1040   1.539       .  S
C854        H861   1.087       .  S
C854        C855   1.366       .  D
C855        C856   1.540       .  S
C855        C956   1.479       .  S
C856        C860   1.537       .  S
C856        C858   1.543       .  S
C856        H862   1.110       .  S
C857        H863   1.084       .  S
C857        C858   1.369       .  D
C858        C927   1.461       .  S
C859        H864   1.087       .  S
C859        C860   1.365       .  D
C860        C968   1.489       .  S
C865        C866   1.535       .  S
C865        C871   1.535       .  S
C865        C869   1.536       .  S
C865       C1016   1.535       .  S
C866        H873   1.087       .  S
C866        C867   1.365       .  D
C867        C868   1.538       .  S
C867        C941   1.496       .  S
C868        C872   1.542       .  S
C868        C870   1.543       .  S
C868        H874   1.109       .  S
C869        H875   1.086       .  S
C869        C870   1.372       .  D
C870        C911   1.457       .  S
C871        H876   1.084       .  S
C871        C872   1.357       .  D
C872        C953   1.482       .  S
C877        C878   1.533       .  S
C877        C883   1.536       .  S
C877        C881   1.541       .  S
C877        C989   1.540       .  S
C878        H885   1.087       .  S
C878        C879   1.364       .  D
C879        C880   1.531       .  S
C879        C965   1.481       .  S
C880        C884   1.535       .  S
C880        C882   1.539       .  S
C880        H886   1.111       .  S
C881        H887   1.084       .  S
C881        C882   1.370       .  D
C882        C914   1.458       .  S
C883        H888   1.086       .  S
C883        C884   1.365       .  D
C884        C932   1.479       .  S
C889        C890   1.539       .  S
C889        C895   1.533       .  S
C889        C893   1.536       .  S
C889        C980   1.537       .  S
C890        H897   1.086       .  S
C890        C891   1.360       .  D
C891        C892   1.539       .  S
C891        C929   1.481       .  S
C892        C896   1.537       .  S
C892        C894   1.542       .  S
C892        H898   1.111       .  S
C893        C894   1.369       .  D
C894        C926   1.458       .  S
C895        H900   1.086       .  S
C895        C896   1.365       .  D
C896        C944   1.490       .  S
O901        C911   1.279       .  A
O901      Ni1713   1.909       .  S
O902        C912   1.279       .  A
O902       Ni909   1.916       .  S
O903        C913   1.281       .  A
O903      Ni1981   1.918       .  S
O904        C914   1.279       .  A
O905        C914   1.279       .  A
O906        C913   1.278       .  A
O906      Ni1982   1.914       .  S
O907        C912   1.282       .  A
O907       Ni910   1.921       .  S
O908        C911   1.279       .  A
O908      Ni1714   1.915       .  S
Ni909      O1705   1.909   1_556  S
Ni909      O1975   1.918       .  S
Ni909      Ni910   2.396       .  S
Ni910      O1978   1.914       .  S
Ni910      O1712   1.915   1_556  S
O915        C925   1.280       .  A
O915       Ni923   1.914       .  S
O917        C927   1.279       .  A
O918       Ni923   1.913       .  S
O919       Ni924   1.919       .  S
O920        C927   1.280       .  A
O922        C925   1.278       .  A
O922       Ni924   1.910       .  S
Ni923      Ni924   2.396       .  S
C929        C930   1.405       .  A
C929        C934   1.413       .  A
C930        C931   1.407       .  A
C930        H935   1.084       .  S
C931        C932   1.408       .  A
C932        C933   1.400       .  A
C933        C934   1.394       .  A
C933        H936   1.085       .  S
C934        C937   1.444       .  S
C937        N939   1.156       .  T
C938        N940   1.157   1_554  T
C941        C942   1.405       .  A
C941        C946   1.413       .  A
C942        C943   1.398       .  A
C942        H947   1.085       .  S
C943        C944   1.412       .  A
C943        C950   1.444       .  S
C944        C945   1.403       .  A
C945        C946   1.403       .  A
C945        H948   1.084       .  S
C946        C949   1.435       .  S
C950        N952   1.157       .  T
C953        C954   1.406       .  A
C953        C958   1.413       .  A
C954        C955   1.408       .  A
C954        H959   1.084       .  S
C955        C956   1.410       .  A
C955        C962   1.442       .  S
C956        C957   1.397       .  A
C957        C958   1.390       .  A
C957        H960   1.085       .  S
C958        C961   1.441       .  S
C961        N963   1.155       .  T
C965        C966   1.402       .  A
C965        C970   1.409       .  A
C966        C967   1.404       .  A
C966        H971   1.084       .  S
C967        C968   1.414       .  A
C968        C969   1.405       .  A
C969        C970   1.394       .  A
C969        H972   1.085       .  S
C970        C973   1.445       .  S
C973        N975   1.157       .  T
C974        N976   1.157   1_554  T
C977        C978   1.408       .  A
C977        C982   1.421       .  A
C978        C979   1.409       .  A
C979        C980   1.421       .  A
C980        C981   1.408       .  A
C981        C982   1.389       .  A
C981        H984   1.083       .  S
C982        C985   1.450       .  S
C985        N987   1.158       .  T
C986        N988   1.157       .  T
C989        C990   1.412       .  A
C989        C994   1.420       .  A
C990        C991   1.412       .  A
C990        H995   1.081       .  S
C991        C992   1.420       .  A
C991        C998   1.440       .  S
C992        C993   1.408       .  A
C993        C994   1.392       .  A
C993        H996   1.085       .  S
C994        C997   1.447       .  S
C997        N999   1.157       .  T
C998       N2072   1.157       .  T
N1000      C2070   1.158       .  T
C1001      C1002   1.404       .  A
C1001      C1006   1.412       .  A
C1002      C1003   1.396       .  A
C1002      H1007   1.085       .  S
C1003      C1004   1.411       .  A
C1003      C1010   1.444       .  S
C1004      C1005   1.403       .  A
C1005      C1006   1.404       .  A
C1005      H1008   1.084       .  S
C1006      C1009   1.441       .  S
C1009      N1011   1.157       .  T
C1010      N1012   1.157       .  T
C1013      C1014   1.403       .  A
C1013      C1018   1.418       .  A
C1014      C1015   1.382       .  A
C1014      H1019   1.082       .  S
C1015      C1016   1.421       .  A
C1015      C1022   1.442       .  S
C1016      C1017   1.414       .  A
C1017      C1018   1.413       .  A
C1017      H1020   1.083       .  S
C1018      C1021   1.442       .  S
C1021      N2095   1.158       .  T
C1022      N1024   1.155       .  T
N1023      C2093   1.158       .  T
C1025      C1026   1.409       .  A
C1025      C1030   1.416       .  A
C1026      C1027   1.414       .  A
C1026      H1031   1.084       .  S
C1027      C1028   1.412       .  A
C1027      C1034   1.442       .  S
C1028      C1029   1.400       .  A
C1029      C1030   1.388       .  A
C1029      H1032   1.086       .  S
C1030      C1033   1.446       .  S
C1033      N1035   1.157       .  T
C1034      N1036   1.157       .  T
C1037      C1038   1.408       .  A
C1037      C1042   1.421       .  A
C1038      C1039   1.392       .  A
C1038      H1043   1.084       .  S
C1039      C1040   1.418       .  A
C1039      C1046   1.446       .  S
C1040      C1041   1.410       .  A
C1041      C1042   1.411       .  A
C1041      H1044   1.080       .  S
C1042      C1045   1.440       .  S
C1045      N1047   1.157       .  T
C1046      N1048   1.157       .  T
C1049      C1050   1.396       .  A
C1049      C1054   1.407       .  A
C1050      C1051   1.399       .  A
C1050      H1055   1.083       .  S
C1051      C1052   1.415       .  A
C1051      C1058   1.437       .  S
C1052      C1053   1.409       .  A
C1053      C1054   1.400       .  A
C1053      H1056   1.085       .  S
C1054      C1057   1.443       .  S
C1057      N1059   1.157       .  T
C1058      N1060   1.156       .  T
C1061      C1062   1.406       .  A
C1061      C1066   1.412       .  A
C1062      C1063   1.410       .  A
C1062      H1067   1.084       .  S
C1063      C1064   1.410       .  A
C1063      C1070   1.442       .  S
C1064      C1065   1.401       .  A
C1065      C1066   1.392       .  A
C1065      H1068   1.086       .  S
C1066      C1069   1.443       .  S
C1069      N1071   1.156       .  T
C1070      N1072   1.157       .  T
C1073      C1074   1.534       .  S
C1073      C1079   1.544       .  S
C1073      C1077   1.539       .  S
C1073      C1305   1.540       .  S
C1074      H1081   1.087       .  S
C1074      C1075   1.361       .  D
C1075      C1076   1.537       .  S
C1075      C1329   1.490       .  S
C1076      C1080   1.537       .  S
C1076      C1078   1.539       .  S
C1076      H1082   1.111       .  S
C1077      H1083   1.081       .  S
C1077      C1078   1.369       .  D
C1078      C1193   1.456       .  S
C1079      H1084   1.087       .  S
C1079      C1080   1.365       .  D
C1080      C1317   1.483       .  S
C1085      C1086   1.543       .  S
C1085      C1091   1.529       .  S
C1085      C1089   1.529       .  S
C1085      C1281   1.536       .  S
C1086      H1093   1.087       .  S
C1086      C1087   1.364       .  D
C1087      C1088   1.541       .  S
C1087      C1320   1.493       .  S
C1088      C1092   1.548       .  S
C1088      C1090   1.559       .  S
C1088      H1094   1.110       .  S
C1089      H1095   1.082       .  S
C1089      C1090   1.367       .  D
C1090      C1181   1.468       .  S
C1091      H1096   1.088       .  S
C1091      C1092   1.362       .  D
C1092      C1293   1.491       .  S
C1097      C1098   1.542       .  S
C1097      C1103   1.527       .  S
C1097      C1101   1.541       .  S
C1097      C1260   1.545       .  S
C1098      H1105   1.087       .  S
C1098      C1099   1.367       .  D
C1099      C1100   1.538       .  S
C1099      C1269   1.490       .  S
C1100      C1104   1.543       .  S
C1100      C1102   1.549       .  S
C1100      H1106   1.111       .  S
C1101      H1107   1.082       .  S
C1101      C1102   1.371       .  D
C1102      C1180   1.471       .  S
C1103      H1108   1.088       .  S
C1103      C1104   1.361       .  D
C1104      C1332   1.487       .  S
C1109      C1110   1.525       .  S
C1109      C1115   1.536       .  S
C1109      C1113   1.539       .  S
C1109      C1245   1.537       .  S
C1110      H1117   1.088       .  S
C1110      C1111   1.361       .  D
C1111      C1112   1.539       .  S
C1111      C1296   1.486       .  S
C1112      C1116   1.538       .  S
C1112      C1114   1.547       .  S
C1112      H1118   1.111       .  S
C1113      H1655   1.084       .  S
C1113      C1114   1.373       .  D
C1114      C1196   1.462       .  S
C1115      H1120   1.086       .  S
C1115      C1116   1.365       .  D
C1116      C1272   1.485       .  S
H1119      C1649   1.085       .  S
C1121      C1122   1.535       .  S
C1121      C1127   1.531       .  S
C1121      C1125   1.538       .  S
C1121      C1308   1.537       .  S
C1122      H1129   1.087       .  S
C1122      C1123   1.364       .  D
C1123      C1124   1.547       .  S
C1123      C1224   1.483       .  S
C1124      C1128   1.541       .  S
C1124      C1126   1.549       .  S
C1124      H1130   1.110       .  S
C1125      H1131   1.084       .  S
C1125      C1126   1.369       .  D
C1126      C1195   1.465       .  S
C1127      H1132   1.087       .  S
C1127      C1128   1.364       .  D
C1128      C1236   1.495       .  S
C1133      C1134   1.528       .  S
C1133      C1139   1.535       .  S
C1133      C1137   1.540       .  S
C1133      C1284   1.531       .  S
C1134      H1141   1.087       .  S
C1134      C1135   1.364       .  D
C1135      C1136   1.549       .  S
C1135      C1209   1.500       .  S
C1136      C1140   1.545       .  S
C1136      C1138   1.542       .  S
C1136      H1142   1.108       .  S
C1137      H1143   1.085       .  S
C1137      C1138   1.370       .  D
C1138      C1179   1.460       .  S
C1139      H1144   1.087       .  S
C1139      C1140   1.360       .  D
C1140      C1221   1.487       .  S
C1145      C1146   1.534       .  S
C1145      C1151   1.537       .  S
C1145      C1149   1.542       .  S
C1145      C1257   1.543       .  S
C1146      H1153   1.087       .  S
C1146      C1147   1.365       .  D
C1147      C1148   1.534       .  S
C1147      C1233   1.485       .  S
C1148      C1152   1.536       .  S
C1148      C1150   1.542       .  S
C1148      H1154   1.111       .  S
C1149      H1155   1.085       .  S
C1149      C1150   1.371       .  D
C1150      C1182   1.463       .  S
C1151      H1156   1.086       .  S
C1151      C1152   1.366       .  D
C1152      C1200   1.480       .  S
C1157      C1158   1.539       .  S
C1157      C1163   1.534       .  S
C1157      C1161   1.538       .  S
C1157      C1248   1.540       .  S
C1158      H1165   1.086       .  S
C1158      C1159   1.362       .  D
C1159      C1160   1.537       .  S
C1159      C1197   1.481       .  S
C1160      C1164   1.535       .  S
C1160      C1162   1.541       .  S
C1160      H1166   1.111       .  S
C1161      H1703   1.084       .  S
C1161      C1162   1.370       .  D
C1162      C1194   1.458       .  S
C1163      H1168   1.086       .  S
C1163      C1164   1.366       .  D
C1164      C1212   1.492       .  S
H1167      C1697   1.084   1_545  S
O1169      C1179   1.280       .  A
O1170      C1180   1.280       .  A
O1170     Ni1177   1.923       .  S
O1171      C1181   1.281       .  A
O1172      C1182   1.280       .  A
O1172     Ni1445   1.918   1_554  S
O1173      C1182   1.279       .  A
O1173     Ni1446   1.914   1_554  S
O1174      C1181   1.280       .  A
O1175      C1180   1.281       .  A
O1175     Ni1178   1.920       .  S
O1176      C1179   1.279       .  A
Ni1177     O1440   1.918       .  S
Ni1177    Ni1178   2.394       .  S
Ni1178     O1441   1.914       .  S
O1183      C1193   1.280       .  A
O1183     Ni1191   1.914       .  S
O1184      C1730   1.280   1_545  A
O1184     Ni1459   1.915   1_554  S
O1185      C1195   1.280       .  A
O1185     Ni1459   1.918   1_554  S
O1186      C1732   1.278   1_545  A
O1186     Ni1191   1.915       .  S
O1187      C1732   1.281   1_545  A
O1187     Ni1192   1.919       .  S
O1188      C1195   1.280       .  A
O1188     Ni1460   1.918   1_554  S
O1189      C1730   1.278   1_545  A
O1189     Ni1460   1.909   1_554  S
O1190      C1193   1.277       .  A
O1190     Ni1192   1.908       .  S
Ni1191     O1452   1.915       .  S
Ni1191     O1453   1.918       .  S
Ni1191    Ni1192   2.396       .  S
Ni1192     O1456   1.918       .  S
Ni1192     O1457   1.909       .  S
C1194      O1720   1.279       .  A
C1194      O1725   1.279       .  A
C1196      O1722   1.278       .  A
C1196      O1723   1.281       .  A
C1197      C1198   1.405       .  A
C1197      C1202   1.412       .  A
C1198      C1199   1.408       .  A
C1198      H1203   1.084       .  S
C1199      C1200   1.409       .  A
C1199      C1474   1.442       .  S
C1200      C1201   1.400       .  A
C1201      C1202   1.394       .  A
C1201      H1204   1.085       .  S
C1202      C1205   1.445       .  S
C1205      N1207   1.157       .  T
C1206      C1467   1.442       .  S
C1206      N1208   1.157       .  T
C1209      C1210   1.406       .  A
C1209      C1214   1.410       .  A
C1210      C1211   1.398       .  A
C1210      H1215   1.085       .  S
C1211      C1212   1.412       .  A
C1211      C1218   1.445       .  S
C1212      C1213   1.405       .  A
C1213      C1214   1.406       .  A
C1213      H1216   1.084       .  S
C1214      C1217   1.433       .  S
C1217      N1487   1.154   1_554  T
C1218      N1220   1.157       .  T
N1219      C1485   1.154       .  T
C1221      C1222   1.406       .  A
C1221      C1226   1.408       .  A
C1222      C1223   1.410       .  A
C1222      H1227   1.084       .  S
C1223      C1224   1.411       .  A
C1223      C1230   1.442       .  S
C1224      C1225   1.397       .  A
C1225      C1226   1.392       .  A
C1225      H1228   1.085       .  S
C1226      C1229   1.434       .  S
C1229      N1231   1.153       .  T
C1230      N1500   1.157       .  T
N1232      C1498   1.157       .  T
C1233      C1234   1.403       .  A
C1233      C1238   1.410       .  A
C1234      C1235   1.406       .  A
C1234      H1239   1.084       .  S
C1235      C1236   1.414       .  A
C1235      C1510   1.439       .  S
C1236      C1237   1.406       .  A
C1237      C1238   1.396       .  A
C1237      H1240   1.085       .  S
C1238      C1241   1.445       .  S
C1241      N1243   1.157       .  T
C1242      C1503   1.439       .  S
C1242      N1244   1.157       .  T
C1245      C1246   1.409       .  A
C1245      C1250   1.421       .  A
C1246      C1247   1.412       .  A
C1246      H1787   1.080       .  S
C1247      C1248   1.421       .  A
C1247      C1790   1.442       .  S
C1248      C1249   1.408       .  A
C1249      C1250   1.390       .  A
C1249      H1252   1.083       .  S
C1250      C1253   1.449       .  S
H1251      C1782   1.080       .  S
C1253      N1255   1.158       .  T
C1254      C1783   1.442   1_545  S
C1254      N1256   1.157       .  T
C1257      C1258   1.413       .  A
C1257      C1262   1.421       .  A
C1258      C1259   1.413       .  A
C1258      H1263   1.081       .  S
C1259      C1260   1.420       .  A
C1259      C1266   1.441       .  S
C1260      C1261   1.408       .  A
C1261      C1262   1.393       .  A
C1261      H1264   1.085       .  S
C1262      C1265   1.446       .  S
C1265      N1267   1.157       .  T
C1269      C1270   1.405       .  A
C1269      C1274   1.413       .  A
C1270      C1271   1.398       .  A
C1270      H1275   1.085       .  S
C1271      C1272   1.410       .  A
C1271      C1278   1.444       .  S
C1272      C1273   1.403       .  A
C1273      C1274   1.405       .  A
C1273      H1276   1.084       .  S
C1274      C1277   1.440       .  S
C1277      N1279   1.157       .  T
C1278      N1280   1.157       .  T
C1281      C1282   1.402       .  A
C1281      C1286   1.420       .  A
C1282      C1283   1.380       .  A
C1282      H1287   1.079       .  S
C1283      C1284   1.416       .  A
C1283      C1290   1.445       .  S
C1284      C1285   1.413       .  A
C1285      C1286   1.414       .  A
C1285      H1288   1.082       .  S
C1286      C1289   1.441       .  S
C1290      N1292   1.156       .  T
C1293      C1294   1.408       .  A
C1293      C1298   1.415       .  A
C1294      C1295   1.415       .  A
C1294      H1299   1.084       .  S
C1295      C1296   1.412       .  A
C1295      C1302   1.442       .  S
C1296      C1297   1.397       .  A
C1297      C1298   1.387       .  A
C1297      H1300   1.086       .  S
C1298      C1301   1.442       .  S
C1301      N1303   1.155       .  T
C1302      N1304   1.157       .  T
C1305      C1306   1.408       .  A
C1305      C1310   1.420       .  A
C1306      C1307   1.390       .  A
C1306      H1311   1.084       .  S
C1307      C1308   1.418       .  A
C1307      C1314   1.447       .  S
C1308      C1309   1.411       .  A
C1309      C1310   1.412       .  A
C1309      H1312   1.080       .  S
C1310      C1313   1.440       .  S
C1313      N1315   1.157       .  T
C1314      N1316   1.157       .  T
C1317      C1318   1.394       .  A
C1317      C1322   1.409       .  A
C1318      C1319   1.398       .  A
C1318      H1323   1.084       .  S
C1319      C1320   1.417       .  A
C1319      C1326   1.435       .  S
C1320      C1321   1.408       .  A
C1321      C1322   1.401       .  A
C1321      H1324   1.085       .  S
C1322      C1325   1.443       .  S
C1325      N1327   1.157       .  T
C1326      N1328   1.156       .  T
C1329      C1330   1.408       .  A
C1329      C1334   1.411       .  A
C1330      C1331   1.413       .  A
C1330      H1335   1.084       .  S
C1331      C1332   1.410       .  A
C1331      C1338   1.442       .  S
C1332      C1333   1.402       .  A
C1333      C1334   1.393       .  A
C1333      H1336   1.086       .  S
C1334      C1337   1.442       .  S
C1337      N1339   1.156       .  T
C1338      N1340   1.157       .  T
C1341      C1342   1.534       .  S
C1341      C1347   1.544       .  S
C1341      C1345   1.539       .  S
C1341      C1573   1.540       .  S
C1342      H1349   1.087       .  S
C1342      C1343   1.361       .  D
C1343      C1344   1.537       .  S
C1343      C1597   1.490       .  S
C1344      C1348   1.537       .  S
C1344      C1346   1.539       .  S
C1344      H1350   1.111       .  S
C1345      H1351   1.081       .  S
C1345      C1346   1.369       .  D
C1346      C1461   1.456       .  S
C1347      H1352   1.087       .  S
C1347      C1348   1.365       .  D
C1348      C1585   1.483       .  S
C1353      C1354   1.543       .  S
C1353      C1359   1.529       .  S
C1353      C1357   1.529       .  S
C1353      C1549   1.536       .  S
C1354      H1361   1.087       .  S
C1354      C1355   1.364       .  D
C1355      C1356   1.541       .  S
C1355      C1588   1.493       .  S
C1356      C1360   1.548       .  S
C1356      C1358   1.559       .  S
C1356      H1362   1.110       .  S
C1357      H1363   1.082       .  S
C1357      C1358   1.367       .  D
C1358      C1449   1.468       .  S
C1359      H1364   1.088       .  S
C1359      C1360   1.362       .  D
C1360      C1561   1.491       .  S
C1365      C1366   1.542       .  S
C1365      C1371   1.527       .  S
C1365      C1369   1.541       .  S
C1365      C1528   1.545       .  S
C1366      H1373   1.087       .  S
C1366      C1367   1.367       .  D
C1367      C1368   1.538       .  S
C1367      C1537   1.490       .  S
C1368      C1372   1.543       .  S
C1368      C1370   1.549       .  S
C1368      H1374   1.111       .  S
C1369      H1375   1.082       .  S
C1369      C1370   1.371       .  D
C1370      C1448   1.471       .  S
C1371      H1376   1.088       .  S
C1371      C1372   1.361       .  D
C1372      C1600   1.487       .  S
C1377      C1378   1.525       .  S
C1377      C1383   1.536       .  S
C1377      C1381   1.539       .  S
C1377      C1513   1.537       .  S
C1378      H1385   1.088       .  S
C1378      C1379   1.361       .  D
C1379      C1380   1.539       .  S
C1379      C1564   1.486       .  S
C1380      C1384   1.538       .  S
C1380      C1382   1.547       .  S
C1380      H1386   1.111       .  S
C1381      H1923   1.084       .  S
C1381      C1382   1.373       .  D
C1382      C1464   1.462       .  S
C1383      H1388   1.086       .  S
C1383      C1384   1.365       .  D
C1384      C1540   1.485       .  S
H1387      C1917   1.085       .  S
C1389      C1390   1.535       .  S
C1389      C1395   1.531       .  S
C1389      C1393   1.538       .  S
C1389      C1576   1.537       .  S
C1390      H1397   1.087       .  S
C1390      C1391   1.364       .  D
C1391      C1392   1.547       .  S
C1391      C1492   1.483       .  S
C1392      C1396   1.541       .  S
C1392      C1394   1.549       .  S
C1392      H1398   1.110       .  S
C1393      H1399   1.084       .  S
C1393      C1394   1.369       .  D
C1394      C1463   1.465       .  S
C1395      H1400   1.087       .  S
C1395      C1396   1.364       .  D
C1396      C1504   1.495       .  S
C1401      C1402   1.528       .  S
C1401      C1407   1.535       .  S
C1401      C1405   1.540       .  S
C1401      C1552   1.531       .  S
C1402      H1409   1.087       .  S
C1402      C1403   1.364       .  D
C1403      C1404   1.549       .  S
C1403      C1477   1.500       .  S
C1404      C1408   1.545       .  S
C1404      C1406   1.542       .  S
C1404      H1410   1.108       .  S
C1405      H1411   1.085       .  S
C1405      C1406   1.370       .  D
C1406      C1447   1.460       .  S
C1407      H1412   1.087       .  S
C1407      C1408   1.360       .  D
C1408      C1489   1.487       .  S
C1413      C1414   1.534       .  S
C1413      C1419   1.537       .  S
C1413      C1417   1.542       .  S
C1413      C1525   1.543       .  S
C1414      H1421   1.087       .  S
C1414      C1415   1.365       .  D
C1415      C1416   1.534       .  S
C1415      C1501   1.485       .  S
C1416      C1420   1.536       .  S
C1416      C1418   1.542       .  S
C1416      H1422   1.111       .  S
C1417      H1423   1.085       .  S
C1417      C1418   1.371       .  D
C1418      C1450   1.463       .  S
C1419      H1424   1.086       .  S
C1419      C1420   1.366       .  D
C1420      C1468   1.480       .  S
C1425      C1426   1.539       .  S
C1425      C1431   1.534       .  S
C1425      C1429   1.538       .  S
C1425      C1516   1.540       .  S
C1426      H1433   1.086       .  S
C1426      C1427   1.362       .  D
C1427      C1428   1.537       .  S
C1427      C1465   1.481       .  S
C1428      C1432   1.535       .  S
C1428      C1430   1.541       .  S
C1428      H1434   1.111       .  S
C1429      H1971   1.084       .  S
C1429      C1430   1.370       .  D
C1430      C1462   1.458       .  S
C1431      H1436   1.086       .  S
C1431      C1432   1.366       .  D
C1432      C1480   1.492       .  S
H1435      C1965   1.084   1_545  S
O1437      C1447   1.280       .  A
O1438      C1448   1.280       .  A
O1438     Ni1445   1.923       .  S
O1439      C1449   1.281       .  A
O1440      C1450   1.280       .  A
O1441      C1450   1.279       .  A
O1442      C1449   1.280       .  A
O1443      C1448   1.281       .  A
O1443     Ni1446   1.920       .  S
O1444      C1447   1.279       .  A
Ni1445    Ni1446   2.394       .  S
O1451      C1461   1.280       .  A
O1451     Ni1459   1.914       .  S
O1452      C1998   1.280   1_545  A
O1453      C1463   1.280       .  A
O1454      C2000   1.278   1_545  A
O1454     Ni1459   1.915       .  S
O1455      C2000   1.281   1_545  A
O1455     Ni1460   1.919       .  S
O1456      C1463   1.280       .  A
O1457      C1998   1.278   1_545  A
O1458      C1461   1.277       .  A
O1458     Ni1460   1.908       .  S
Ni1459    Ni1460   2.396       .  S
C1462      O1988   1.279       .  A
C1462      O1993   1.279       .  A
C1464      O1990   1.278       .  A
C1464      O1991   1.281       .  A
C1465      C1466   1.405       .  A
C1465      C1470   1.412       .  A
C1466      C1467   1.408       .  A
C1466      H1471   1.084       .  S
C1467      C1468   1.409       .  A
C1468      C1469   1.400       .  A
C1469      C1470   1.394       .  A
C1469      H1472   1.085       .  S
C1470      C1473   1.445       .  S
C1473      N1475   1.157       .  T
C1474      N1476   1.157   1_554  T
C1477      C1478   1.406       .  A
C1477      C1482   1.410       .  A
C1478      C1479   1.398       .  A
C1478      H1483   1.085       .  S
C1479      C1480   1.412       .  A
C1479      C1486   1.445       .  S
C1480      C1481   1.405       .  A
C1481      C1482   1.406       .  A
C1481      H1484   1.084       .  S
C1482      C1485   1.433       .  S
C1486      N1488   1.157       .  T
C1489      C1490   1.406       .  A
C1489      C1494   1.408       .  A
C1490      C1491   1.410       .  A
C1490      H1495   1.084       .  S
C1491      C1492   1.411       .  A
C1491      C1498   1.442       .  S
C1492      C1493   1.397       .  A
C1493      C1494   1.392       .  A
C1493      H1496   1.085       .  S
C1494      C1497   1.434       .  S
C1497      N1499   1.153       .  T
C1501      C1502   1.403       .  A
C1501      C1506   1.410       .  A
C1502      C1503   1.406       .  A
C1502      H1507   1.084       .  S
C1503      C1504   1.414       .  A
C1504      C1505   1.406       .  A
C1505      C1506   1.396       .  A
C1505      H1508   1.085       .  S
C1506      C1509   1.445       .  S
C1509      N1511   1.157       .  T
C1510      N1512   1.157   1_554  T
C1513      C1514   1.409       .  A
C1513      C1518   1.421       .  A
C1514      C1515   1.412       .  A
C1514      H2055   1.080       .  S
C1515      C1516   1.421       .  A
C1515      C2058   1.442       .  S
C1516      C1517   1.408       .  A
C1517      C1518   1.390       .  A
C1517      H1520   1.083       .  S
C1518      C1521   1.449       .  S
H1519      C2050   1.080       .  S
C1521      N1523   1.158       .  T
C1522      C2051   1.442   1_545  S
C1522      N1524   1.157       .  T
C1525      C1526   1.413       .  A
C1525      C1530   1.421       .  A
C1526      C1527   1.413       .  A
C1526      H1531   1.081       .  S
C1527      C1528   1.420       .  A
C1527      C1534   1.441       .  S
C1528      C1529   1.408       .  A
C1529      C1530   1.393       .  A
C1529      H1532   1.085       .  S
C1530      C1533   1.446       .  S
C1533      N1535   1.157       .  T
C1537      C1538   1.405       .  A
C1537      C1542   1.413       .  A
C1538      C1539   1.398       .  A
C1538      H1543   1.085       .  S
C1539      C1540   1.410       .  A
C1539      C1546   1.444       .  S
C1540      C1541   1.403       .  A
C1541      C1542   1.405       .  A
C1541      H1544   1.084       .  S
C1542      C1545   1.440       .  S
C1545      N1547   1.157       .  T
C1546      N1548   1.157       .  T
C1549      C1550   1.402       .  A
C1549      C1554   1.420       .  A
C1550      C1551   1.380       .  A
C1550      H1555   1.079       .  S
C1551      C1552   1.416       .  A
C1551      C1558   1.445       .  S
C1552      C1553   1.413       .  A
C1553      C1554   1.414       .  A
C1553      H1556   1.082       .  S
C1554      C1557   1.441       .  S
C1558      N1560   1.156       .  T
C1561      C1562   1.408       .  A
C1561      C1566   1.415       .  A
C1562      C1563   1.415       .  A
C1562      H1567   1.084       .  S
C1563      C1564   1.412       .  A
C1563      C1570   1.442       .  S
C1564      C1565   1.397       .  A
C1565      C1566   1.387       .  A
C1565      H1568   1.086       .  S
C1566      C1569   1.442       .  S
C1569      N1571   1.155       .  T
C1570      N1572   1.157       .  T
C1573      C1574   1.408       .  A
C1573      C1578   1.420       .  A
C1574      C1575   1.390       .  A
C1574      H1579   1.084       .  S
C1575      C1576   1.418       .  A
C1575      C1582   1.447       .  S
C1576      C1577   1.411       .  A
C1577      C1578   1.412       .  A
C1577      H1580   1.080       .  S
C1578      C1581   1.440       .  S
C1581      N1583   1.157       .  T
C1582      N1584   1.157       .  T
C1585      C1586   1.394       .  A
C1585      C1590   1.409       .  A
C1586      C1587   1.398       .  A
C1586      H1591   1.084       .  S
C1587      C1588   1.417       .  A
C1587      C1594   1.435       .  S
C1588      C1589   1.408       .  A
C1589      C1590   1.401       .  A
C1589      H1592   1.085       .  S
C1590      C1593   1.443       .  S
C1593      N1595   1.157       .  T
C1594      N1596   1.156       .  T
C1597      C1598   1.408       .  A
C1597      C1602   1.411       .  A
C1598      C1599   1.413       .  A
C1598      H1603   1.084       .  S
C1599      C1600   1.410       .  A
C1599      C1606   1.442       .  S
C1600      C1601   1.402       .  A
C1601      C1602   1.393       .  A
C1601      H1604   1.086       .  S
C1602      C1605   1.442       .  S
C1605      N1607   1.156       .  T
C1606      N1608   1.157       .  T
C1609      C1610   1.533       .  S
C1609      C1615   1.545       .  S
C1609      C1613   1.540       .  S
C1609      C1841   1.542       .  S
C1610      H1617   1.088       .  S
C1610      C1611   1.360       .  D
C1611      C1612   1.536       .  S
C1611      C1865   1.485       .  S
C1612      C1616   1.534       .  S
C1612      C1614   1.539       .  S
C1612      H1618   1.111       .  S
C1613      H1619   1.080       .  S
C1613      C1614   1.369       .  D
C1614      C1729   1.458       .  S
C1615      H1620   1.087       .  S
C1615      C1616   1.367       .  D
C1616      C1853   1.482       .  S
C1621      C1622   1.543       .  S
C1621      C1627   1.525       .  S
C1621      C1625   1.526       .  S
C1621      C1817   1.534       .  S
C1622      H1629   1.086       .  S
C1622      C1623   1.361       .  D
C1623      C1624   1.539       .  S
C1623      C1856   1.491       .  S
C1624      C1628   1.547       .  S
C1624      C1626   1.558       .  S
C1624      H1630   1.111       .  S
C1625      H1631   1.085       .  S
C1625      C1626   1.369       .  D
C1626      C1717   1.462       .  S
C1627      H1632   1.087       .  S
C1627      C1628   1.362       .  D
C1628      C1829   1.490       .  S
C1633      C1634   1.541       .  S
C1633      C1639   1.529       .  S
C1633      C1637   1.542       .  S
C1633      C1796   1.543       .  S
C1634      H1641   1.087       .  S
C1634      C1635   1.367       .  D
C1635      C1636   1.536       .  S
C1635      C1805   1.487       .  S
C1636      C1640   1.540       .  S
C1636      C1638   1.545       .  S
C1636      H1642   1.111       .  S
C1637      H1643   1.082       .  S
C1637      C1638   1.371       .  D
C1638      C1716   1.466       .  S
C1639      H1644   1.088       .  S
C1639      C1640   1.361       .  D
C1640      C1868   1.483       .  S
C1645      C1646   1.523       .  S
C1645      C1651   1.534       .  S
C1645      C1649   1.538       .  S
C1645      C1781   1.533       .  S
C1646      H1653   1.088       .  S
C1646      C1647   1.360       .  D
C1647      C1648   1.541       .  S
C1647      C1832   1.488       .  S
C1648      C1652   1.539       .  S
C1648      C1650   1.548       .  S
C1648      H1654   1.111       .  S
C1649      C1650   1.373       .  D
C1650      C1732   1.464       .  S
C1651      H1656   1.086       .  S
C1651      C1652   1.365       .  D
C1652      C1808   1.485       .  S
C1657      C1658   1.534       .  S
C1657      C1663   1.531       .  S
C1657      C1661   1.539       .  S
C1657      C1844   1.539       .  S
C1658      H1665   1.087       .  S
C1658      C1659   1.366       .  D
C1659      C1660   1.540       .  S
C1659      C1760   1.479       .  S
C1660      C1664   1.537       .  S
C1660      C1662   1.543       .  S
C1660      H1666   1.110       .  S
C1661      H1667   1.084       .  S
C1661      C1662   1.369       .  D
C1662      C1731   1.461       .  S
C1663      H1668   1.087       .  S
C1663      C1664   1.365       .  D
C1664      C1772   1.489       .  S
C1669      C1670   1.535       .  S
C1669      C1675   1.535       .  S
C1669      C1673   1.536       .  S
C1669      C1820   1.535       .  S
C1670      H1677   1.087       .  S
C1670      C1671   1.365       .  D
C1671      C1672   1.538       .  S
C1671      C1745   1.496       .  S
C1672      C1676   1.542       .  S
C1672      C1674   1.543       .  S
C1672      H1678   1.109       .  S
C1673      H1679   1.086       .  S
C1673      C1674   1.372       .  D
C1674      C1715   1.457       .  S
C1675      H1680   1.084       .  S
C1675      C1676   1.357       .  D
C1676      C1757   1.482       .  S
C1681      C1682   1.533       .  S
C1681      C1687   1.536       .  S
C1681      C1685   1.541       .  S
C1681      C1793   1.540       .  S
C1682      H1689   1.087       .  S
C1682      C1683   1.364       .  D
C1683      C1684   1.531       .  S
C1683      C1769   1.480       .  S
C1684      C1688   1.535       .  S
C1684      C1686   1.539       .  S
C1684      H1690   1.111       .  S
C1685      H1691   1.084       .  S
C1685      C1686   1.370       .  D
C1686      C1718   1.458       .  S
C1687      H1692   1.086       .  S
C1687      C1688   1.365       .  D
C1688      C1736   1.479       .  S
C1693      C1694   1.539       .  S
C1693      C1699   1.533       .  S
C1693      C1697   1.536       .  S
C1693      C1784   1.537       .  S
C1694      H1701   1.086       .  S
C1694      C1695   1.360       .  D
C1695      C1696   1.539       .  S
C1695      C1733   1.481       .  S
C1696      C1700   1.537       .  S
C1696      C1698   1.542       .  S
C1696      H1702   1.111       .  S
C1697      C1698   1.369       .  D
C1698      C1730   1.458       .  S
C1699      H1704   1.086       .  S
C1699      C1700   1.365       .  D
C1700      C1748   1.490       .  S
O1705      C1715   1.279       .  A
O1706      C1716   1.279       .  A
O1706     Ni1713   1.916   1_655  S
O1707      C1717   1.281       .  A
O1708      C1718   1.279       .  A
O1708     Ni1981   1.914   1_654  S
O1709      C1718   1.279       .  A
O1709     Ni1982   1.911   1_654  S
O1710      C1717   1.278       .  A
O1711      C1716   1.282       .  A
O1711     Ni1714   1.921   1_655  S
O1712      C1715   1.279       .  A
Ni1713     O1976   1.914   1_455  S
Ni1713    Ni1714   2.396       .  S
Ni1714     O1977   1.911   1_455  S
O1719      C1729   1.280       .  A
O1719     Ni1727   1.914       .  S
O1720     Ni1995   1.914   1_554  S
O1721      C1731   1.279       .  A
O1721     Ni1995   1.913   1_554  S
O1722     Ni1727   1.913       .  S
O1723     Ni1728   1.919       .  S
O1724      C1731   1.280       .  A
O1724     Ni1996   1.917   1_554  S
O1725     Ni1996   1.912   1_554  S
O1726      C1729   1.278       .  A
O1726     Ni1728   1.910       .  S
Ni1727     O1988   1.914       .  S
Ni1727     O1989   1.913       .  S
Ni1727    Ni1728   2.396       .  S
Ni1728     O1992   1.917       .  S
Ni1728     O1993   1.912       .  S
C1733      C1734   1.405       .  A
C1733      C1738   1.413       .  A
C1734      C1735   1.407       .  A
C1734      H1739   1.084       .  S
C1735      C1736   1.408       .  A
C1735      C2010   1.442       .  S
C1736      C1737   1.400       .  A
C1737      C1738   1.394       .  A
C1737      H1740   1.085       .  S
C1738      C1741   1.444       .  S
C1741      N1743   1.156       .  T
C1742      C2003   1.442       .  S
C1742      N1744   1.157       .  T
C1745      C1746   1.405       .  A
C1745      C1750   1.413       .  A
C1746      C1747   1.398       .  A
C1746      H1751   1.085       .  S
C1747      C1748   1.412       .  A
C1747      C1754   1.444       .  S
C1748      C1749   1.403       .  A
C1749      C1750   1.403       .  A
C1749      H1752   1.084       .  S
C1750      C1753   1.435       .  S
C1753      N2023   1.154       .  T
C1754      N1756   1.157       .  T
N1755      C2021   1.154       .  T
C1757      C1758   1.406       .  A
C1757      C1762   1.413       .  A
C1758      C1759   1.408       .  A
C1758      H1763   1.084       .  S
C1759      C1760   1.410       .  A
C1759      C1766   1.442       .  S
C1760      C1761   1.397       .  A
C1761      C1762   1.390       .  A
C1761      H1764   1.085       .  S
C1762      C1765   1.441       .  S
C1765      N1767   1.155       .  T
C1766      N2036   1.157       .  T
N1768      C2034   1.157       .  T
C1769      C1770   1.402       .  A
C1769      C1774   1.409       .  A
C1770      C1771   1.404       .  A
C1770      H1775   1.084       .  S
C1771      C1772   1.414       .  A
C1771      C2046   1.440       .  S
C1772      C1773   1.405       .  A
C1773      C1774   1.394       .  A
C1773      H1776   1.085       .  S
C1774      C1777   1.445       .  S
C1777      N1779   1.157       .  T
C1778      C2039   1.440       .  S
C1778      N1780   1.157       .  T
C1781      C1782   1.408       .  A
C1781      C1786   1.421       .  A
C1782      C1783   1.409       .  A
C1783      C1784   1.421       .  A
C1784      C1785   1.408       .  A
C1785      C1786   1.389       .  A
C1785      H1788   1.083       .  S
C1786      C1789   1.450       .  S
C1789      N1791   1.158       .  T
C1790      N1792   1.157       .  T
C1793      C1794   1.412       .  A
C1793      C1798   1.420       .  A
C1794      C1795   1.412       .  A
C1794      H1799   1.081       .  S
C1795      C1796   1.420       .  A
C1795      C1802   1.440       .  S
C1796      C1797   1.408       .  A
C1797      C1798   1.392       .  A
C1797      H1800   1.085       .  S
C1798      C1801   1.447       .  S
C1801      N1803   1.157       .  T
C1805      C1806   1.404       .  A
C1805      C1810   1.412       .  A
C1806      C1807   1.396       .  A
C1806      H1811   1.085       .  S
C1807      C1808   1.411       .  A
C1807      C1814   1.444       .  S
C1808      C1809   1.403       .  A
C1809      C1810   1.404       .  A
C1809      H1812   1.084       .  S
C1810      C1813   1.441       .  S
C1813      N1815   1.157       .  T
C1814      N1816   1.157       .  T
C1817      C1818   1.403       .  A
C1817      C1822   1.418       .  A
C1818      C1819   1.382       .  A
C1818      H1823   1.082       .  S
C1819      C1820   1.421       .  A
C1819      C1826   1.442       .  S
C1820      C1821   1.414       .  A
C1821      C1822   1.413       .  A
C1821      H1824   1.083       .  S
C1822      C1825   1.442       .  S
C1826      N1828   1.155       .  T
C1829      C1830   1.409       .  A
C1829      C1834   1.416       .  A
C1830      C1831   1.414       .  A
C1830      H1835   1.084       .  S
C1831      C1832   1.412       .  A
C1831      C1838   1.442       .  S
C1832      C1833   1.400       .  A
C1833      C1834   1.388       .  A
C1833      H1836   1.086       .  S
C1834      C1837   1.446       .  S
C1837      N1839   1.157       .  T
C1838      N1840   1.157       .  T
C1841      C1842   1.408       .  A
C1841      C1846   1.421       .  A
C1842      C1843   1.392       .  A
C1842      H1847   1.084       .  S
C1843      C1844   1.418       .  A
C1843      C1850   1.446       .  S
C1844      C1845   1.410       .  A
C1845      C1846   1.411       .  A
C1845      H1848   1.080       .  S
C1846      C1849   1.440       .  S
C1849      N1851   1.157       .  T
C1850      N1852   1.157       .  T
C1853      C1854   1.396       .  A
C1853      C1858   1.407       .  A
C1854      C1855   1.399       .  A
C1854      H1859   1.083       .  S
C1855      C1856   1.415       .  A
C1855      C1862   1.437       .  S
C1856      C1857   1.409       .  A
C1857      C1858   1.400       .  A
C1857      H1860   1.085       .  S
C1858      C1861   1.443       .  S
C1861      N1863   1.157       .  T
C1862      N1864   1.156       .  T
C1865      C1866   1.406       .  A
C1865      C1870   1.412       .  A
C1866      C1867   1.410       .  A
C1866      H1871   1.084       .  S
C1867      C1868   1.410       .  A
C1867      C1874   1.442       .  S
C1868      C1869   1.401       .  A
C1869      C1870   1.392       .  A
C1869      H1872   1.086       .  S
C1870      C1873   1.443       .  S
C1873      N1875   1.156       .  T
C1874      N1876   1.157       .  T
C1877      C1878   1.533       .  S
C1877      C1883   1.545       .  S
C1877      C1881   1.540       .  S
C1877      C2109   1.542       .  S
C1878      H1885   1.088       .  S
C1878      C1879   1.360       .  D
C1879      C1880   1.536       .  S
C1879      C2133   1.485       .  S
C1880      C1884   1.534       .  S
C1880      C1882   1.539       .  S
C1880      H1886   1.111       .  S
C1881      H1887   1.080       .  S
C1881      C1882   1.369       .  D
C1882      C1997   1.458       .  S
C1883      H1888   1.087       .  S
C1883      C1884   1.367       .  D
C1884      C2121   1.482       .  S
C1889      C1890   1.543       .  S
C1889      C1895   1.525       .  S
C1889      C1893   1.526       .  S
C1889      C2085   1.534       .  S
C1890      H1897   1.086       .  S
C1890      C1891   1.361       .  D
C1891      C1892   1.539       .  S
C1891      C2124   1.491       .  S
C1892      C1896   1.547       .  S
C1892      C1894   1.558       .  S
C1892      H1898   1.111       .  S
C1893      H1899   1.085       .  S
C1893      C1894   1.369       .  D
C1894      C1985   1.462       .  S
C1895      H1900   1.087       .  S
C1895      C1896   1.362       .  D
C1896      C2097   1.490       .  S
C1901      C1902   1.541       .  S
C1901      C1907   1.529       .  S
C1901      C1905   1.542       .  S
C1901      C2064   1.543       .  S
C1902      H1909   1.087       .  S
C1902      C1903   1.367       .  D
C1903      C1904   1.536       .  S
C1903      C2073   1.487       .  S
C1904      C1908   1.540       .  S
C1904      C1906   1.545       .  S
C1904      H1910   1.111       .  S
C1905      H1911   1.082       .  S
C1905      C1906   1.371       .  D
C1906      C1984   1.466       .  S
C1907      H1912   1.088       .  S
C1907      C1908   1.361       .  D
C1908      C2136   1.483       .  S
C1913      C1914   1.523       .  S
C1913      C1919   1.534       .  S
C1913      C1917   1.538       .  S
C1913      C2049   1.533       .  S
C1914      H1921   1.088       .  S
C1914      C1915   1.360       .  D
C1915      C1916   1.541       .  S
C1915      C2100   1.488       .  S
C1916      C1920   1.539       .  S
C1916      C1918   1.548       .  S
C1916      H1922   1.111       .  S
C1917      C1918   1.373       .  D
C1918      C2000   1.464       .  S
C1919      H1924   1.086       .  S
C1919      C1920   1.365       .  D
C1920      C2076   1.485       .  S
C1925      C1926   1.534       .  S
C1925      C1931   1.531       .  S
C1925      C1929   1.539       .  S
C1925      C2112   1.539       .  S
C1926      H1933   1.087       .  S
C1926      C1927   1.366       .  D
C1927      C1928   1.540       .  S
C1927      C2028   1.479       .  S
C1928      C1932   1.537       .  S
C1928      C1930   1.543       .  S
C1928      H1934   1.110       .  S
C1929      H1935   1.084       .  S
C1929      C1930   1.369       .  D
C1930      C1999   1.461       .  S
C1931      H1936   1.087       .  S
C1931      C1932   1.365       .  D
C1932      C2040   1.489       .  S
C1937      C1938   1.535       .  S
C1937      C1943   1.535       .  S
C1937      C1941   1.536       .  S
C1937      C2088   1.535       .  S
C1938      H1945   1.087       .  S
C1938      C1939   1.365       .  D
C1939      C1940   1.538       .  S
C1939      C2013   1.496       .  S
C1940      C1944   1.542       .  S
C1940      C1942   1.543       .  S
C1940      H1946   1.109       .  S
C1941      H1947   1.086       .  S
C1941      C1942   1.372       .  D
C1942      C1983   1.457       .  S
C1943      H1948   1.084       .  S
C1943      C1944   1.357       .  D
C1944      C2025   1.482       .  S
C1949      C1950   1.533       .  S
C1949      C1955   1.536       .  S
C1949      C1953   1.541       .  S
C1949      C2061   1.540       .  S
C1950      H1957   1.087       .  S
C1950      C1951   1.364       .  D
C1951      C1952   1.531       .  S
C1951      C2037   1.480       .  S
C1952      C1956   1.535       .  S
C1952      C1954   1.539       .  S
C1952      H1958   1.111       .  S
C1953      H1959   1.084       .  S
C1953      C1954   1.370       .  D
C1954      C1986   1.458       .  S
C1955      H1960   1.086       .  S
C1955      C1956   1.365       .  D
C1956      C2004   1.479       .  S
C1961      C1962   1.539       .  S
C1961      C1967   1.533       .  S
C1961      C1965   1.536       .  S
C1961      C2052   1.537       .  S
C1962      H1969   1.086       .  S
C1962      C1963   1.360       .  D
C1963      C1964   1.539       .  S
C1963      C2001   1.481       .  S
C1964      C1968   1.537       .  S
C1964      C1966   1.542       .  S
C1964      H1970   1.111       .  S
C1965      C1966   1.369       .  D
C1966      C1998   1.458       .  S
C1967      H1972   1.086       .  S
C1967      C1968   1.365       .  D
C1968      C2016   1.490       .  S
O1973      C1983   1.279       .  A
O1974      C1984   1.279       .  A
O1974     Ni1981   1.916   1_655  S
O1975      C1985   1.281       .  A
O1976      C1986   1.279       .  A
O1977      C1986   1.279       .  A
O1978      C1985   1.278       .  A
O1979      C1984   1.282       .  A
O1979     Ni1982   1.921   1_655  S
O1980      C1983   1.279       .  A
Ni1981    Ni1982   2.396       .  S
O1987      C1997   1.280       .  A
O1987     Ni1995   1.914       .  S
O1989      C1999   1.279       .  A
O1990     Ni1995   1.913       .  S
O1991     Ni1996   1.919       .  S
O1992      C1999   1.280       .  A
O1994      C1997   1.278       .  A
O1994     Ni1996   1.910       .  S
Ni1995    Ni1996   2.396       .  S
C2001      C2002   1.405       .  A
C2001      C2006   1.413       .  A
C2002      C2003   1.407       .  A
C2002      H2007   1.084       .  S
C2003      C2004   1.408       .  A
C2004      C2005   1.400       .  A
C2005      C2006   1.394       .  A
C2005      H2008   1.085       .  S
C2006      C2009   1.444       .  S
C2009      N2011   1.156       .  T
C2010      N2012   1.157   1_554  T
C2013      C2014   1.405       .  A
C2013      C2018   1.413       .  A
C2014      C2015   1.398       .  A
C2014      H2019   1.085       .  S
C2015      C2016   1.412       .  A
C2015      C2022   1.444       .  S
C2016      C2017   1.403       .  A
C2017      C2018   1.403       .  A
C2017      H2020   1.084       .  S
C2018      C2021   1.435       .  S
C2022      N2024   1.157       .  T
C2025      C2026   1.406       .  A
C2025      C2030   1.413       .  A
C2026      C2027   1.408       .  A
C2026      H2031   1.084       .  S
C2027      C2028   1.410       .  A
C2027      C2034   1.442       .  S
C2028      C2029   1.397       .  A
C2029      C2030   1.390       .  A
C2029      H2032   1.085       .  S
C2030      C2033   1.441       .  S
C2033      N2035   1.155       .  T
C2037      C2038   1.402       .  A
C2037      C2042   1.409       .  A
C2038      C2039   1.404       .  A
C2038      H2043   1.084       .  S
C2039      C2040   1.414       .  A
C2040      C2041   1.405       .  A
C2041      C2042   1.394       .  A
C2041      H2044   1.085       .  S
C2042      C2045   1.445       .  S
C2045      N2047   1.157       .  T
C2046      N2048   1.157   1_554  T
C2049      C2050   1.408       .  A
C2049      C2054   1.421       .  A
C2050      C2051   1.409       .  A
C2051      C2052   1.421       .  A
C2052      C2053   1.408       .  A
C2053      C2054   1.389       .  A
C2053      H2056   1.083       .  S
C2054      C2057   1.450       .  S
C2057      N2059   1.158       .  T
C2058      N2060   1.157       .  T
C2061      C2062   1.412       .  A
C2061      C2066   1.420       .  A
C2062      C2063   1.412       .  A
C2062      H2067   1.081       .  S
C2063      C2064   1.420       .  A
C2063      C2070   1.440       .  S
C2064      C2065   1.408       .  A
C2065      C2066   1.392       .  A
C2065      H2068   1.085       .  S
C2066      C2069   1.447       .  S
C2069      N2071   1.157       .  T
C2073      C2074   1.404       .  A
C2073      C2078   1.412       .  A
C2074      C2075   1.396       .  A
C2074      H2079   1.085       .  S
C2075      C2076   1.411       .  A
C2075      C2082   1.444       .  S
C2076      C2077   1.403       .  A
C2077      C2078   1.404       .  A
C2077      H2080   1.084       .  S
C2078      C2081   1.441       .  S
C2081      N2083   1.157       .  T
C2082      N2084   1.157       .  T
C2085      C2086   1.403       .  A
C2085      C2090   1.418       .  A
C2086      C2087   1.382       .  A
C2086      H2091   1.082       .  S
C2087      C2088   1.421       .  A
C2087      C2094   1.442       .  S
C2088      C2089   1.414       .  A
C2089      C2090   1.413       .  A
C2089      H2092   1.083       .  S
C2090      C2093   1.442       .  S
C2094      N2096   1.155       .  T
C2097      C2098   1.409       .  A
C2097      C2102   1.416       .  A
C2098      C2099   1.414       .  A
C2098      H2103   1.084       .  S
C2099      C2100   1.412       .  A
C2099      C2106   1.442       .  S
C2100      C2101   1.400       .  A
C2101      C2102   1.388       .  A
C2101      H2104   1.086       .  S
C2102      C2105   1.446       .  S
C2105      N2107   1.157       .  T
C2106      N2108   1.157       .  T
C2109      C2110   1.408       .  A
C2109      C2114   1.421       .  A
C2110      C2111   1.392       .  A
C2110      H2115   1.084       .  S
C2111      C2112   1.418       .  A
C2111      C2118   1.446       .  S
C2112      C2113   1.410       .  A
C2113      C2114   1.411       .  A
C2113      H2116   1.080       .  S
C2114      C2117   1.440       .  S
C2117      N2119   1.157       .  T
C2118      N2120   1.157       .  T
C2121      C2122   1.396       .  A
C2121      C2126   1.407       .  A
C2122      C2123   1.399       .  A
C2122      H2127   1.083       .  S
C2123      C2124   1.415       .  A
C2123      C2130   1.437       .  S
C2124      C2125   1.409       .  A
C2125      C2126   1.400       .  A
C2125      H2128   1.085       .  S
C2126      C2129   1.443       .  S
C2129      N2131   1.157       .  T
C2130      N2132   1.156       .  T
C2133      C2134   1.406       .  A
C2133      C2138   1.412       .  A
C2134      C2135   1.410       .  A
C2134      H2139   1.084       .  S
C2135      C2136   1.410       .  A
C2135      C2142   1.442       .  S
C2136      C2137   1.401       .  A
C2137      C2138   1.392       .  A
C2137      H2140   1.086       .  S
C2138      C2141   1.443       .  S
C2141      N2143   1.156       .  T
C2142      N2144   1.157       .  T
