geometry optimzed in LAMMPS
_audit_creation_date              2020-11-30 
_audit_creation_method            'lammps2cif' 
_symmetry_space_group_name_H-M    'P1' 
_symmetry_Int_Tables_number       1 
_symmetry_cell_setting            triclinic 
loop_ 
_symmetry_equiv_pos_as_xyz 
  x,y,z 
_cell_length_a                    22.13278934 
_cell_length_b                    23.037945157728597 
_cell_length_c                    33.729003009960245 
_cell_angle_alpha                 89.38494098910483 
_cell_angle_beta                  91.77488882525934 
_cell_angle_gamma                 120.80547451630683 
loop_ 
_atom_site_label 
_atom_site_type_symbol 
_atom_site_fract_x 
_atom_site_fract_y 
_atom_site_fract_z 
_atom_site_charge 
C1          C  0.33606559  0.66327442  0.08574967     0.45800
H2          H  0.33163466  0.66037263  0.05287808    -0.03200
C3          C  0.34444876  0.67017885  0.16234001     0.45900
H4          H  0.34796802  0.67263496  0.19523713    -0.03200
C5          C  0.38239598  0.74275138  0.10094825    -0.16900
C6          C  0.25841182  0.62965597  0.10491244    -0.16700
C7          C  0.37257071  0.62134051  0.10288464    -0.17000
C8          C  0.38641275  0.74560011  0.14355977    -0.17000
C9          C  0.26316265  0.63519314  0.14702140    -0.16600
C10         C  0.37625027  0.62494089  0.14551749    -0.16900
C11         C  0.00641341  0.18097954  0.34983468     0.02600
C12         C  0.01642820  0.21171775  0.38736231     0.02600
C13         C  0.05185507  0.19682263  0.41730630    -0.17900
C14         C  0.11247743  0.19712082  0.40554771     0.02600
C15         C  0.10966225  0.17633146  0.36472362     0.02600
C16         C  0.04378417  0.14793659  0.34420679    -0.17900
H17         H  0.03580652  0.12419148  0.31570076     0.04600
H18         H  0.04789370  0.20880948  0.44772090     0.04600
C19         C  0.09830747  0.87273937  0.36596340     0.02600
C20         C  0.11099339  0.90510733  0.40327798     0.02600
C21         C  0.15760050  0.97440858  0.40550021    -0.17900
C22         C  0.20407268  0.00092952  0.37420265     0.02600
C23         C  0.16966369  0.98262532  0.33630264     0.02600
C24         C  0.11782258  0.91321965  0.33220964    -0.17900
H25         H  0.10431989  0.88793972  0.30384627     0.04600
H26         H  0.17286447  0.99708391  0.43455929     0.04600
C27         C  0.80113459  0.80122019  0.13189316     0.02600
C28         C  0.79821923  0.77790586  0.09220377     0.02600
C29         C  0.86438886  0.79997141  0.07672567    -0.17900
C30         C  0.91555038  0.80297528  0.10452031     0.02600
C31         C  0.91816013  0.82825119  0.14346136     0.02600
C32         C  0.86728520  0.84531541  0.15019319    -0.17900
H33         H  0.86819631  0.86357459  0.17968566     0.04600
H34         H  0.86468239  0.78571868  0.04628836     0.04600
Zn35       Zn  0.05808294  0.48726677  0.02609089     1.49700
Zn36       Zn  0.04822264  0.58772960  0.04231191     1.49400
Zn37       Zn  0.97725781  0.52470654  0.44715291     1.49100
Zn38       Zn  0.88608145  0.45589908  0.01029952     1.49500
O39         O  0.99378218  0.51358481  0.00320300    -1.83800
O40         O  0.16575837  0.54554426  0.05546993    -0.74400
O41         O  0.06553983  0.66355829  0.50851532    -0.74200
O42         O  0.04037784  0.49682753  0.42834433    -0.73700
O43         O  0.14381577  0.61880274  0.08026582    -0.74400
O44         O  0.04590523  0.43450027  0.47876330    -0.74000
O45         O  0.01754555  0.62516118  0.44709135    -0.74600
O46         O  0.80847845  0.40776219  0.46098660    -0.74000
O47         O  0.96900674  0.56328735  0.07610812    -0.74800
O48         O  0.87584487  0.46293977  0.41198590    -0.74100
O49         O  0.87530769  0.52761542  0.03538908    -0.74600
O50         O  0.87337487  0.37958526  0.04493696    -0.74500
O51         O  0.98431404  0.43707471  0.06512152    -0.74300
C52         C  0.18615242  0.59632430  0.07910706     0.77500
C53         C  0.05039241  0.67239321  0.47304937     0.78000
C54         C  0.03192705  0.44186019  0.44274191     0.76900
C55         C  0.81423029  0.41710796  0.42329435     0.77300
C56         C  0.92007547  0.56989710  0.06048359     0.78400
C57         C  0.93026965  0.38147750  0.05450480     0.77500
Zn58       Zn  0.09374339  0.61468019  0.24207749     1.49700
Zn59       Zn  0.98427037  0.48210877  0.30512403     1.49400
Zn60       Zn  0.90395927  0.49508654  0.24141393     1.49100
Zn61       Zn  0.05064494  0.49687115  0.20861449     1.49500
O62         O  0.00823665  0.52252892  0.25157489    -1.83800
O63         O  0.12771206  0.64299026  0.29862117    -0.74400
O64         O  0.87920926  0.42731333  0.33457987    -0.74200
O65         O  0.92560814  0.59355310  0.22902744    -0.73700
O66         O  0.03980242  0.56763842  0.33671758    -0.74400
O67         O  0.04357997  0.66423358  0.22756461    -0.74000
O68         O  0.81635153  0.43900228  0.28796146    -0.74600
O69         O  0.98413994  0.50039724  0.17019255    -0.74000
O70         O  0.01432078  0.41559869  0.29685744    -0.74800
O71         O  0.88136450  0.42860227  0.19275629    -0.74100
O72         O  0.02368050  0.40573170  0.23060882    -0.74600
O73         O  0.15105578  0.54385430  0.17748304    -0.74500
O74         O  0.18511412  0.64423660  0.19934987    -0.74300
C75         C  0.08810301  0.62782414  0.32853401     0.77500
C76         C  0.81784014  0.41603509  0.32326749     0.78000
C77         C  0.98057753  0.65301036  0.22477770     0.76900
C78         C  0.93210818  0.44130611  0.17008093     0.77300
C79         C  0.01327228  0.38274943  0.26602886     0.78400
C80         C  0.19702662  0.60691765  0.17601367     0.77500
C81         C  0.99729612  0.23456251  0.13156239     0.02600
C82         C  0.98213795  0.19638768  0.09587487     0.02600
C83         C  0.95488573  0.12700629  0.09901038    -0.17900
C84         C  0.91496725  0.09651446  0.13274597     0.02600
C85         C  0.94231012  0.13319118  0.16950297     0.02600
C86         C  0.99528356  0.20145997  0.16682886    -0.17900
H87         H  0.01422110  0.23099341  0.19348899     0.04600
H88         H  0.94051151  0.09927590  0.07128212     0.04600
C89         C  0.22221071  0.04649135  0.14747334     0.02600
C90         C  0.19301952  0.02219494  0.10801021     0.02600
C91         C  0.14530945  0.04036447  0.09275635    -0.17900
C92         C  0.16353771  0.10731089  0.10084219     0.02600
C93         C  0.20050936  0.13495963  0.13803018     0.02600
C94         C  0.20274891  0.08918416  0.16463451    -0.17900
H95         H  0.21469244  0.10301307  0.19541167     0.04600
H96         H  0.11459942  0.01487536  0.06649026     0.04600
C97         C  0.78888638  0.92286789  0.37123703     0.02600
C98         C  0.81612736  0.91839913  0.40920969     0.02600
C99         C  0.83308097  0.86833022  0.41389156    -0.17900
C100        C  0.79549254  0.81043324  0.38965478     0.02600
C101        C  0.77102475  0.81654411  0.35115383     0.02600
C102        C  0.78727720  0.88147308  0.34043422    -0.17900
H103        H  0.77563412  0.89033126  0.31049816     0.04600
H104        H  0.85137191  0.86293300  0.44317219     0.04600
Zn105      Zn  0.58575423  0.09962919  0.23811201     1.49700
Zn106      Zn  0.50439580  0.02421197  0.30136657     1.49400
Zn107      Zn  0.43634157  0.94853699  0.20645567     1.49100
Zn108      Zn  0.53676699  0.92393778  0.23526782     1.49500
O109        O  0.51568352  0.99787343  0.24668225    -1.83800
O110        O  0.61877563  0.18555412  0.28372332    -0.74400
O111        O  0.41113331  0.01334707  0.29056251    -0.74200
O112        O  0.49611047  0.01562702  0.16680692    -0.73700
O113        O  0.56493198  0.12304429  0.33409814    -0.74400
O114        O  0.54323931  0.11963046  0.18798347    -0.74000
O115        O  0.36670086  0.97076933  0.22946881    -0.74600
O116        O  0.48201199  0.83663214  0.19015053    -0.74000
O117        O  0.51630959  0.95817222  0.33413641    -0.74800
O118        O  0.39093736  0.84633434  0.17753137    -0.74100
O119        O  0.52326242  0.88903349  0.29065819    -0.74600
O120        O  0.64148944  0.97914571  0.22849857    -0.74500
O121        O  0.66749278  0.08716498  0.23025097    -0.74300
C122        C  0.60591133  0.18326112  0.32117079     0.77500
C123        C  0.36674276  0.99950202  0.26183243     0.78000
C124        C  0.49296407  0.06855302  0.16967056     0.76900
C125        C  0.42196984  0.81300726  0.17128819     0.77300
C126        C  0.54693433  0.92842075  0.32087685     0.78400
C127        C  0.68586448  0.04288228  0.22873460     0.77500
Zn128      Zn  0.48720604  0.56889065  0.24987759     1.49700
Zn129      Zn  0.48029494  0.44152897  0.30668743     1.49400
Zn130      Zn  0.41652995  0.46193157  0.20706251     1.49100
Zn131      Zn  0.55399973  0.44816904  0.24427037     1.49500
O132        O  0.48644173  0.48147426  0.25194144    -1.83800
O133        O  0.46211355  0.56753785  0.30552204    -0.74400
O134        O  0.38415284  0.37453652  0.29628838    -0.74200
O135        O  0.38511118  0.52403682  0.16984325    -0.73700
O136        O  0.50147213  0.51735073  0.34475211    -0.74400
O137        O  0.44144701  0.61347890  0.20652511    -0.74000
O138        O  0.33793578  0.38510474  0.23718285    -0.74600
O139        O  0.50043554  0.37776826  0.19838969    -0.74000
O140        O  0.53202136  0.39216100  0.33582765    -0.74800
O141        O  0.46486957  0.44002206  0.16796538    -0.74100
O142        O  0.60076198  0.40583742  0.28811933    -0.74600
O143        O  0.62584968  0.54294639  0.23498503    -0.74500
O144        O  0.58596532  0.61529184  0.24308002    -0.74300
C145        C  0.51029377  0.57089947  0.32857908     0.77500
C146        C  0.33410223  0.35662510  0.27058751     0.78000
C147        C  0.40266010  0.58598817  0.17502914     0.76900
C148        C  0.45970498  0.38361215  0.17293141     0.77300
C149        C  0.58268198  0.38579658  0.32396895     0.78400
C150        C  0.63390288  0.60210141  0.23574161     0.77500
Zn151      Zn  0.46919691  0.88616247  0.48510619     1.49700
Zn152      Zn  0.50252336  0.97034704  0.05105067     1.49400
Zn153      Zn  0.61490171  0.06124978  0.47356981     1.49100
Zn154      Zn  0.49532807  0.04441434  0.45619494     1.49500
O155        O  0.51887166  0.99113246  0.99413230    -1.83800
O156        O  0.41951315  0.80338367  0.03298045    -0.74400
O157        O  0.60177828  0.00965328  0.06926407    -0.74200
O158        O  0.61349954  0.99209769  0.43989580    -0.73700
O159        O  0.44651409  0.86986775  0.08373665    -0.74400
O160        O  0.56068041  0.89311415  0.47105731    -0.74000
O161        O  0.67698879  0.06574943  0.02002557    -0.74600
O162        O  0.54457279  0.13962357  0.42282337    -0.74000
O163        O  0.45119549  0.01990789  0.05634932    -0.74800
O164        O  0.64971539  0.16124446  0.43765099    -0.74100
O165        O  0.43448236  0.05111419  0.99449955    -0.74600
O166        O  0.46052934  0.97134606  0.41504754    -0.74500
O167        O  0.39297262  0.87155401  0.44198772    -0.74300
C168        C  0.41753040  0.80824142  0.07117928     0.77500
C169        C  0.66303476  0.03962203  0.05474588     0.78000
C170        C  0.61649546  0.94535232  0.45888902     0.76900
C171        C  0.61050309  0.18035540  0.41885001     0.77300
C172        C  0.42102475  0.03990057  0.03121689     0.78400
C173        C  0.40068160  0.91908106  0.41876816     0.77500
Zn174      Zn  0.39159273  0.47516844  0.00673692     1.49700
Zn175      Zn  0.50962570  0.54242854  0.04039809     1.49400
Zn176      Zn  0.50867044  0.39956314  0.00686895     1.49100
Zn177      Zn  0.51507122  0.47553229  0.44069368     1.49500
O178        O  0.48030839  0.47208287  0.49707561    -1.83800
O179        O  0.36096119  0.53525805  0.04891864    -0.74400
O180        O  0.51707315  0.48280858  0.07964758    -0.74200
O181        O  0.40500207  0.32700264  0.02230348    -0.73700
O182        O  0.46486679  0.59644982  0.07491974    -0.74400
O183        O  0.34080697  0.37914413  0.01887612    -0.74000
O184        O  0.58443740  0.45205546  0.05291133    -0.74600
O185        O  0.56242619  0.42362508  0.41040125    -0.74000
O186        O  0.59995240  0.60083034  0.51255276    -0.74800
O187        O  0.56241944  0.36386197  0.46011390    -0.74100
O188        O  0.59967067  0.56470081  0.45006161    -0.74600
O189        O  0.42493001  0.45053727  0.40836579    -0.74500
O190        O  0.38252627  0.49187068  0.45013036    -0.74300
C191        C  0.40041135  0.58228461  0.07453091     0.77500
C192        C  0.57822455  0.49408132  0.07449013     0.78000
C193        C  0.34685947  0.32756915  0.02502206     0.76900
C194        C  0.57931967  0.38098779  0.42319384     0.77300
C195        C  0.62996834  0.60354962  0.48013798     0.78400
C196        C  0.37341727  0.44335215  0.42819909     0.77500
C197        C  0.66824102  0.32748847  0.33387725     0.45800
H198        H  0.66678856  0.32852410  0.30097199    -0.03200
C199        C  0.66904622  0.32432088  0.41049509     0.45900
H200        H  0.67025694  0.32310414  0.44339321    -0.03200
C201        C  0.63700082  0.24983067  0.34980903    -0.16900
C202        C  0.74858718  0.37504738  0.35110150    -0.16700
C203        C  0.62082542  0.35642321  0.35196683    -0.17000
C204        C  0.63888723  0.24844734  0.39219555    -0.17000
C205        C  0.74804166  0.37404996  0.39359265    -0.16600
C206        C  0.61934122  0.35364926  0.39456765    -0.16900
C207        C  0.70882917  0.69422104  0.33362502    -0.08800
C208        C  0.71121352  0.75607882  0.33017713     0.07400
C209        C  0.64813697  0.75380572  0.31718018    -0.02600
C210        C  0.58430423  0.69297967  0.31769533    -0.07000
C211        C  0.58077644  0.63274950  0.32872435     0.06500
C212        C  0.64461968  0.63315924  0.33478416    -0.02000
Br213      Br  0.65016458  0.55414108  0.34507565    -0.01700
H214        H  0.75706921  0.69400938  0.33946096     0.10400
H215        H  0.53664379  0.69293564  0.30920656     0.08400
Br216      Br  0.64139100  0.82530709  0.29194214    -0.02200
C217        C  0.66766213  0.89573172  0.38327598    -0.08800
C218        C  0.73292559  0.93979859  0.36679761     0.07400
C219        C  0.73762459  0.98646352  0.33868451    -0.02600
C220        C  0.67696066  0.98781539  0.32700015    -0.07000
C221        C  0.61071496  0.93864046  0.34108795     0.06500
C222        C  0.60626560  0.89311023  0.36990037    -0.02000
Br223      Br  0.51666990  0.82196896  0.38766586    -0.01700
H224        H  0.66435106  0.86091138  0.40518386     0.10400
H225        H  0.68059944  0.02375847  0.30508662     0.08400
Br226      Br  0.82478682  0.03958387  0.31277137    -0.02200
C227        C  0.69666842  0.71933497  0.47445648    -0.08800
C228        C  0.69938943  0.66080217  0.47477217     0.07400
C229        C  0.74631583  0.65536741  0.44975038    -0.02600
C230        C  0.77911223  0.70413442  0.42050275    -0.07000
C231        C  0.75555111  0.74943417  0.41318772     0.06500
C232        C  0.70493876  0.74811039  0.43779355    -0.02000
Br233      Br  0.61889395  0.73571953  0.41561376    -0.01700
H234        H  0.66034116  0.72287687  0.49374366     0.10400
H235        H  0.81755935  0.70318456  0.40193202     0.08400
Br236      Br  0.76003118  0.57984927  0.45174633    -0.02200
C237        C  0.75427128  0.89770238  0.47242227    -0.08800
C238        C  0.80150039  0.94493714  0.44557202     0.07400
C239        C  0.80513682  0.00696095  0.44351984    -0.02600
C240        C  0.74609641  0.01041744  0.45250324    -0.07000
C241        C  0.68580796  0.95198743  0.46590865     0.06500
C242        C  0.69380247  0.89896122  0.48138842    -0.02000
Br243      Br  0.62455324  0.82672796  0.51265950    -0.01700
H244        H  0.75875870  0.85517169  0.48162161     0.10400
H245        H  0.74476704  0.05544778  0.44459397     0.08400
Br246      Br  0.88243981  0.08021971  0.41948231    -0.02200
C247        C  0.17844973  0.21499938  0.07722155    -0.08800
C248        C  0.16805285  0.15196505  0.06696266     0.07400
C249        C  0.19727014  0.14856107  0.03086881    -0.02600
C250        C  0.25802216  0.20590977  0.01795630    -0.07000
C251        C  0.28210591  0.26763864  0.03706719     0.06500
C252        C  0.23813614  0.27344758  0.06429259    -0.02000
Br253      Br  0.26138768  0.35839993  0.08841266    -0.01700
H254        H  0.14824510  0.21856918  0.10055157     0.10400
H255        H  0.28568512  0.20249209  0.99301154     0.08400
Br256      Br  0.15622433  0.07023445  0.99721609    -0.02200
C257        C  0.33132335  0.21116714  0.13032942    -0.08800
C258        C  0.26590769  0.20328519  0.14068550     0.07400
C259        C  0.26654593  0.25799450  0.15858163    -0.02600
C260        C  0.33015225  0.31927749  0.16292629    -0.07000
C261        C  0.39517957  0.32395118  0.15705995     0.06500
C262        C  0.39545261  0.26983182  0.13939927    -0.02000
Br263      Br  0.48180812  0.27276189  0.12932922    -0.01700
H264        H  0.33462573  0.16897498  0.12079847     0.10400
H265        H  0.32842974  0.36319176  0.17136434     0.08400
Br266      Br  0.18308238  0.25022749  0.17939290    -0.02200
C267        C  0.29715777  0.99571647  0.15079726    -0.08800
C268        C  0.28784156  0.04811806  0.16297152     0.07400
C269        C  0.34647621  0.10413712  0.18306023    -0.02600
C270        C  0.41311435  0.11162097  0.18187613    -0.07000
C271        C  0.42356306  0.06319257  0.16381317     0.06500
C272        C  0.36368503  0.00407353  0.14832800    -0.02000
Br273      Br  0.36517364  0.93058331  0.12373152    -0.01700
H274        H  0.25200450  0.94868472  0.14080480     0.10400
H275        H  0.45671330  0.15447853  0.19709119     0.08400
Br276      Br  0.34456626  0.16951067  0.21759546    -0.02200
C277        C  0.29942194  0.97149660  0.04763688    -0.08800
C278        C  0.35790773  0.03610835  0.04325254     0.07400
C279        C  0.35249053  0.09291217  0.04810251    -0.02600
C280        C  0.29128098  0.08418164  0.06346025    -0.07000
C281        C  0.23878114  0.02091438  0.07726284     0.06500
C282        C  0.23946598  0.96295559  0.06490329    -0.02000
Br283      Br  0.16717912  0.87164041  0.07266890    -0.01700
H284        H  0.30235495  0.92742453  0.03998059     0.10400
H285        H  0.28679958  0.12783565  0.06676713     0.08400
Br286      Br  0.42705306  0.18196873  0.03531836    -0.02200
C287        C  0.88185410  0.15830839  0.22197931    -0.08800
C288        C  0.89912223  0.11255210  0.20582651     0.07400
C289        C  0.85422143  0.04392033  0.21301050    -0.02600
C290        C  0.78414407  0.02055984  0.22200192    -0.07000
C291        C  0.76169179  0.06685624  0.22839653     0.06500
C292        C  0.81336705  0.13616962  0.23311123    -0.02000
Br293      Br  0.79336160  0.20560968  0.24678391    -0.01700
H294        H  0.91553670  0.21200474  0.21839848     0.10400
H295        H  0.74727264  0.96695195  0.22323179     0.08400
Br296      Br  0.88769806  0.98334688  0.20661921    -0.02200
C297        C  0.79702658  0.08564665  0.13557261    -0.08800
C298        C  0.83731183  0.05819235  0.12284555     0.07400
C299        C  0.80934952  0.01214983  0.09075100    -0.02600
C300        C  0.75234962  0.00665282  0.06826461    -0.07000
C301        C  0.71911808  0.04176540  0.07936630     0.06500
C302        C  0.73725163  0.07559508  0.11536169    -0.02000
Br303      Br  0.68690751  0.11590753  0.13556635    -0.01700
H304        H  0.81449349  0.12112769  0.15856961     0.10400
H305        H  0.73454331  0.97565413  0.04216679     0.08400
Br306      Br  0.85060016  0.96070314  0.07463868    -0.02200
C307        C  0.01244462  0.40592818  0.14333211    -0.08800
C308        C  0.94335023  0.38768851  0.15357018     0.07400
C309        C  0.89104917  0.31936493  0.15103845    -0.02600
C310        C  0.90962713  0.27133780  0.14177274    -0.07000
C311        C  0.98002924  0.28925591  0.13569753     0.06500
C312        C  0.03149284  0.35787595  0.13609912    -0.02000
Br313      Br  0.12813869  0.38909153  0.12665375    -0.01700
H314        H  0.05274800  0.45825265  0.14141577     0.10400
H315        H  0.86876294  0.22030508  0.13843871     0.08400
Br316      Br  0.79373477  0.29023172  0.15704344    -0.02200
C317        C  0.89549891  0.20368682  0.05381965    -0.08800
C318        C  0.96567573  0.22021612  0.05884826     0.07400
C319        C  0.01782733  0.28162223  0.04436911    -0.02600
C320        C  0.00541922  0.33438307  0.04229564    -0.07000
C321        C  0.93755371  0.32271592  0.04810294     0.06500
C322        C  0.88058437  0.25531709  0.04908765    -0.02000
Br323      Br  0.78383858  0.23092824  0.05096190    -0.01700
H324        H  0.85335388  0.15377723  0.06118231     0.10400
H325        H  0.05037585  0.38465129  0.03982791     0.08400
Br326      Br  0.10832667  0.29745136  0.03375127    -0.02200
C327        C  0.90469449  0.76787392  0.20883037    -0.08800
C328        C  0.94898814  0.80990294  0.17870244     0.07400
C329        C  0.01385448  0.81422458  0.17576756    -0.02600
C330        C  0.02589015  0.76572912  0.19337036    -0.07000
C331        C  0.97283411  0.71203476  0.21493197     0.06500
C332        C  0.91392661  0.71638624  0.22527824    -0.02000
Br333      Br  0.84160650  0.65024434  0.25828992    -0.01700
H334        H  0.85797029  0.76859526  0.21588007     0.10400
H335        H  0.07448461  0.76726740  0.18738604     0.08400
Br336      Br  0.08376505  0.88348303  0.14545111    -0.02200
C337        C  0.90554025  0.69288689  0.12179863    -0.08800
C338        C  0.93369289  0.75051763  0.09743056     0.07400
C339        C  0.95905276  0.74765003  0.06057437    -0.02600
C340        C  0.94793551  0.68592293  0.04682731    -0.07000
C341        C  0.91838317  0.62910271  0.07141061     0.06500
C342        C  0.89983595  0.63342608  0.10951516    -0.02000
Br343      Br  0.86259046  0.55695032  0.14418399    -0.01700
H344        H  0.88420511  0.69135411  0.14980161     0.10400
H345        H  0.96220452  0.68202960  0.01740259     0.08400
Br346      Br  0.00478492  0.82753236  0.02898231    -0.02200
C347        C  0.76072252  0.69142381  0.16151368    -0.08800
C348        C  0.75836845  0.75101585  0.16100088     0.07400
C349        C  0.73068170  0.76680631  0.19276760    -0.02600
C350        C  0.70465943  0.72192947  0.22382859    -0.07000
C351        C  0.69657761  0.65735547  0.22030034     0.06500
C352        C  0.72804144  0.64331788  0.18943746    -0.02000
Br353      Br  0.71892605  0.55722457  0.17776821    -0.01700
H354        H  0.78526962  0.68012337  0.13868416     0.10400
H355        H  0.67954514  0.73278846  0.24702250     0.08400
Br356      Br  0.71901871  0.84331414  0.19205176    -0.02200
C357        C  0.62159973  0.61404161  0.09445050    -0.08800
C358        C  0.63793538  0.56541823  0.08163640     0.07400
C359        C  0.70572657  0.58949667  0.06747910    -0.02600
C360        C  0.75375534  0.65937433  0.06500531    -0.07000
C361        C  0.73780414  0.70849263  0.07815334     0.06500
C362        C  0.66809079  0.68380170  0.08995443    -0.02000
Br363      Br  0.63389098  0.74306450  0.10160690    -0.01700
H364        H  0.57020785  0.59780447  0.10573027     0.10400
H365        H  0.80577704  0.67415282  0.05564561     0.08400
Br366      Br  0.73736892  0.52916774  0.05394553    -0.02200
C367        C  0.27510318  0.07809710  0.30811029    -0.08800
C368        C  0.20717443  0.02320285  0.30107875     0.07400
C369        C  0.19423172  0.99069468  0.26425479    -0.02600
C370        C  0.24782069  0.98349995  0.24902092    -0.07000
C371        C  0.31536045  0.02035771  0.26686243     0.06300
C372        C  0.33066893  0.07473817  0.29276283    -0.02000
Br373      Br  0.42385902  0.14208965  0.31090507    -0.01700
H374        H  0.28582008  0.11296302  0.33227936     0.10400
H375        H  0.23598416  0.94728359  0.22552101     0.08400
Br376      Br  0.10407435  0.95266289  0.23781966    -0.02200
C377        C  0.14307057  0.79364461  0.37684681    -0.08800
C378        C  0.08923784  0.80452419  0.36236682     0.07400
C379        C  0.03057278  0.75212228  0.34253073    -0.02600
C380        C  0.02834256  0.69156291  0.33498027    -0.07000
C381        C  0.08460982  0.68284170  0.34715208     0.06500
C382        C  0.14070137  0.73292618  0.36973338    -0.02000
Br383      Br  0.21350465  0.71918307  0.39141350    -0.01700
H384        H  0.18752002  0.83270160  0.39340747     0.10400
H385        H  0.98451392  0.65271428  0.31753397     0.08400
Br386      Br  0.95433488  0.76340037  0.32502313    -0.02200
C387        C  0.32750118  0.96510763  0.43197080    -0.08800
C388        C  0.34120054  0.92660487  0.40636582     0.07400
C389        C  0.31729148  0.91945927  0.36683583    -0.02600
C390        C  0.27589116  0.94707518  0.35493666    -0.07000
C391        C  0.26543604  0.98963252  0.38069367     0.06500
C392        C  0.29985028  0.00395642  0.41804642    -0.02000
Br393      Br  0.31220539  0.07702222  0.45043232    -0.01700
H394        H  0.34120842  0.96668340  0.46275965     0.10400
H395        H  0.24955682  0.93198939  0.32626638     0.08400
Br396      Br  0.33294647  0.86574707  0.33020803    -0.02200
C397        C  0.00984530  0.74629698  0.44853624    -0.08800
C398        C  0.06549362  0.73941107  0.46340081     0.07400
C399        C  0.13170297  0.79692936  0.47217277    -0.02600
C400        C  0.14370150  0.85997919  0.46038850    -0.07000
C401        C  0.09084995  0.86423521  0.43900852     0.06500
C402        C  0.02222225  0.80966354  0.43847874    -0.02000
Br403      Br  0.94810089  0.82152246  0.41935467    -0.01700
H404        H  0.95723324  0.70276738  0.44476208     0.10400
H405        H  0.19653266  0.90296712  0.46240473     0.08400
Br406      Br  0.21007150  0.79082421  0.49300067    -0.02200
C407        C  0.23421903  0.24119668  0.27756455    -0.08800
C408        C  0.26757522  0.31021464  0.28578111     0.07400
C409        C  0.25083492  0.33409084  0.31863311    -0.02600
C410        C  0.20354683  0.28861240  0.34423611    -0.07000
C411        C  0.16883380  0.21873003  0.33807548     0.06500
C412        C  0.18231585  0.19517958  0.30267063    -0.02000
Br413      Br  0.13070932  0.10345063  0.28538752    -0.01700
H414        H  0.24953591  0.22328228  0.25243116     0.10400
H415        H  0.19264000  0.31025222  0.36859453     0.08400
Br416      Br  0.29829225  0.42943062  0.33233630    -0.02200
C417        C  0.18406615  0.30584693  0.44397992    -0.08800
C418        C  0.18072870  0.24764825  0.42764828     0.07400
C419        C  0.24588140  0.25233371  0.42084864    -0.02600
C420        C  0.30877783  0.31597106  0.42222535    -0.07000
C421        C  0.30852085  0.37549973  0.43159814     0.06500
C422        C  0.24555734  0.36878185  0.44480096    -0.02000
Br423      Br  0.23492425  0.44409911  0.45826818    -0.01700
H424        H  0.13732768  0.30721147  0.44996013     0.10400
H425        H  0.35739064  0.31916838  0.41420329     0.08400
Br426      Br  0.25039960  0.17566442  0.40390466    -0.02200
C427        C  0.02879858  0.23121734  0.28259454    -0.08800
C428        C  0.98178856  0.20341109  0.31437887     0.07400
C429        C  0.92891428  0.22023589  0.31728776    -0.02600
C430        C  0.93707754  0.27635788  0.29733084    -0.07000
C431        C  0.99371763  0.31327821  0.27271620     0.06500
C432        C  0.03691245  0.28818304  0.26267675    -0.02000
Br433      Br  0.12085351  0.34200166  0.23321722    -0.01700
H434        H  0.06891392  0.21855999  0.27839939     0.10400
H435        H  0.90259150  0.29525134  0.30405929     0.08400
Br436      Br  0.85121082  0.17948015  0.35241228    -0.02200
C437        C  0.95993575  0.26489969  0.42109049    -0.08800
C438        C  0.00930976  0.27106170  0.39393525     0.07400
C439        C  0.05283639  0.33525074  0.37604019    -0.02600
C440        C  0.05120729  0.39099705  0.38819683    -0.07000
C441        C  0.00721887  0.38455839  0.41753868     0.06500
C442        C  0.95551228  0.32084604  0.43056692    -0.02000
Br443      Br  0.87514915  0.30860843  0.45711631    -0.01700
H444        H  0.92373234  0.21670488  0.43408268     0.10400
H445        H  0.08964212  0.44105250  0.37780133     0.08400
Br446      Br  0.12212607  0.36094385  0.33833114    -0.02200
C447        C  0.33605018  0.66325637  0.58575448     0.45800
H448        H  0.33161934  0.66035272  0.55288293    -0.03200
C449        C  0.34443261  0.67016501  0.66234488     0.45900
H450        H  0.34795155  0.67262228  0.69524199    -0.03200
C451        C  0.38237927  0.74273393  0.60095202    -0.16900
C452        C  0.25839699  0.62963978  0.60491716    -0.16700
C453        C  0.37255546  0.62132375  0.60289117    -0.17000
C454        C  0.38639422  0.74558422  0.64356379    -0.17000
C455        C  0.26314735  0.63517964  0.64702575    -0.16600
C456        C  0.37623644  0.62492875  0.64552325    -0.16900
C457        C  0.00641550  0.18100140  0.84985591     0.02600
C458        C  0.01644284  0.21174514  0.88738266     0.02600
C459        C  0.05187682  0.19685374  0.91732401    -0.17900
C460        C  0.11249459  0.19714792  0.90556050     0.02600
C461        C  0.10966866  0.17635536  0.86473624     0.02600
C462        C  0.04378528  0.14795785  0.84422472    -0.17900
H463        H  0.03580075  0.12420825  0.81571943     0.04600
H464        H  0.04792271  0.20884414  0.94773896     0.04600
C465        C  0.09828469  0.87275950  0.86596557     0.02600
C466        C  0.11097209  0.90512363  0.90328170     0.02600
C467        C  0.15758071  0.97442459  0.90550587    -0.17900
C468        C  0.20405630  0.00094656  0.87420991     0.02600
C469        C  0.16965228  0.98264573  0.83630792     0.02600
C470        C  0.11780329  0.91324321  0.83221356    -0.17900
H471        H  0.10429885  0.88796503  0.80384969     0.04600
H472        H  0.17284455  0.99709655  0.93456577     0.04600
C473        C  0.80109626  0.80117100  0.63188815     0.02600
C474        C  0.79817129  0.77783612  0.59220309     0.02600
C475        C  0.86433707  0.79989775  0.57672100    -0.17900
C476        C  0.91551134  0.80292482  0.60451519     0.02600
C477        C  0.91812652  0.82821714  0.64345237     0.02600
C478        C  0.86725045  0.84528173  0.65017930    -0.17900
H479        H  0.86816768  0.86355688  0.67966783     0.04600
H480        H  0.86462227  0.78562805  0.54628641     0.04600
Zn481      Zn  0.05808000  0.48724859  0.52609329     1.49700
Zn482      Zn  0.04820121  0.58770407  0.54232327     1.49400
Zn483      Zn  0.97725481  0.52472266  0.94714648     1.49100
Zn484      Zn  0.88607779  0.45586924  0.51030468     1.49500
O485        O  0.99377801  0.51356562  0.50320875    -1.83800
O486        O  0.16575518  0.54553707  0.55546810    -0.74400
O487        O  0.06556644  0.66357830  0.00850036    -0.74200
O488        O  0.04037753  0.49685120  0.92833974    -0.73700
O489        O  0.14379140  0.61877250  0.58027843    -0.74400
O490        O  0.04590811  0.43452556  0.97875839    -0.74000
O491        O  0.01754751  0.62517629  0.94708146    -0.74600
O492        O  0.80847532  0.40778696  0.96098148    -0.74000
O493        O  0.96897520  0.56323799  0.57611626    -0.74800
O494        O  0.87584146  0.46295043  0.91197829    -0.74100
O495        O  0.87528348  0.52757227  0.53539370    -0.74600
O496        O  0.87338047  0.37955556  0.54493896    -0.74500
O497        O  0.98431795  0.43705592  0.56512751    -0.74300
C498        C  0.18613826  0.59630651  0.57911216     0.77500
C499        C  0.05040840  0.67241066  0.97303658     0.78000
C500        C  0.03192301  0.44188349  0.94273813     0.76900
C501        C  0.81422599  0.41712274  0.92328819     0.77300
C502        C  0.92004804  0.56985187  0.56048966     0.78400
C503        C  0.93027645  0.38145461  0.55451339     0.77500
Zn504      Zn  0.09372240  0.61467700  0.74207336     1.49700
Zn505      Zn  0.98425651  0.48211807  0.80512191     1.49400
Zn506      Zn  0.90394174  0.49507698  0.74140737     1.49100
Zn507      Zn  0.05063043  0.49686518  0.70861539     1.49500
O508        O  0.00821881  0.52252625  0.75157102    -1.83800
O509        O  0.12768324  0.64300620  0.79861573    -0.74400
O510        O  0.87919823  0.42731840  0.83457535    -0.74200
O511        O  0.92558607  0.59354335  0.72902449    -0.73700
O512        O  0.03977000  0.56765529  0.83671001    -0.74400
O513        O  0.04355724  0.66422361  0.72755705    -0.74000
O514        O  0.81633617  0.43899390  0.78795379    -0.74600
O515        O  0.98412918  0.50037948  0.67018580    -0.74000
O516        O  0.01432380  0.41561860  0.79686476    -0.74800
O517        O  0.88135530  0.42858746  0.69275265    -0.74100
O518        O  0.02366737  0.40573236  0.73061653    -0.74600
O519        O  0.15104305  0.54384445  0.67748929    -0.74500
O520        O  0.18509474  0.64422997  0.69934819    -0.74300
C521        C  0.08806991  0.62784091  0.82852654     0.77500
C522        C  0.81782809  0.41603404  0.82326133     0.78000
C523        C  0.98055509  0.65300051  0.72477365     0.76900
C524        C  0.93210018  0.44128709  0.67007908     0.77300
C525        C  0.01326523  0.38275955  0.76603848     0.78400
C526        C  0.19701100  0.60690797  0.67601679     0.77500
C527        C  0.99729740  0.23453335  0.63159640     0.02600
C528        C  0.98214639  0.19636283  0.59590745     0.02600
C529        C  0.95486847  0.12697598  0.59904109    -0.17900
C530        C  0.91493667  0.09648660  0.63277308     0.02600
C531        C  0.94227803  0.13315435  0.66953212     0.02600
C532        C  0.99526058  0.20142108  0.66686344    -0.17900
H533        H  0.01419371  0.23094907  0.69352548     0.04600
H534        H  0.94049265  0.09924810  0.57131195     0.04600
C535        C  0.22217254  0.04646309  0.64745410     0.02600
C536        C  0.19298778  0.02217121  0.60798933     0.02600
C537        C  0.14527931  0.04034096  0.59273334    -0.17900
C538        C  0.16350358  0.10728492  0.60082264     0.02600
C539        C  0.20046764  0.13492817  0.63801321     0.02600
C540        C  0.20270273  0.08914905  0.66461590    -0.17900
H541        H  0.21463935  0.10297270  0.69539402     0.04600
H542        H  0.11457559  0.01485622  0.56646470     0.04600
C543        C  0.78889365  0.92290861  0.87123532     0.02600
C544        C  0.81614348  0.91844169  0.90920548     0.02600
C545        C  0.83310928  0.86838036  0.91388233    -0.17900
C546        C  0.79552561  0.81048422  0.88964386     0.02600
C547        C  0.77105158  0.81659575  0.85114484     0.02600
C548        C  0.78729125  0.88152287  0.84042922    -0.17900
H549        H  0.77564082  0.89038184  0.81049487     0.04600
H550        H  0.85140396  0.86298360  0.94316189     0.04600
Zn551      Zn  0.58572709  0.09960958  0.73811360     1.49700
Zn552      Zn  0.50437814  0.02420597  0.80136860     1.49400
Zn553      Zn  0.43631706  0.94852256  0.70645572     1.49100
Zn554      Zn  0.53673275  0.92391075  0.73528080     1.49500
O555        O  0.51565687  0.99785433  0.74668545    -1.83800
O556        O  0.61875903  0.18554298  0.78372128    -0.74400
O557        O  0.41112035  0.01334567  0.79055905    -0.74200
O558        O  0.49607951  0.01561000  0.66680581    -0.73700
O559        O  0.56491965  0.12304101  0.83409889    -0.74400
O560        O  0.54320054  0.11960896  0.68798781    -0.74000
O561        O  0.36667628  0.97075751  0.72946819    -0.74600
O562        O  0.48197762  0.83660292  0.69016608    -0.74000
O563        O  0.51627659  0.95816326  0.83414363    -0.74800
O564        O  0.39092038  0.84632548  0.67752635    -0.74100
O565        O  0.52324323  0.88902190  0.79067490    -0.74600
O566        O  0.64145075  0.97911027  0.72851103    -0.74500
O567        O  0.66746027  0.08713232  0.73025728    -0.74300
C568        C  0.60589949  0.18325609  0.82116910     0.77500
C569        C  0.36672561  0.99949713  0.76183092     0.78000
C570        C  0.49292967  0.06853368  0.66967084     0.76900
C571        C  0.42194686  0.81298980  0.67129275     0.77300
C572        C  0.54691470  0.92842243  0.82088792     0.78400
C573        C  0.68582791  0.04284579  0.72874610     0.77500
Zn574      Zn  0.48720540  0.56888403  0.74987568     1.49700
Zn575      Zn  0.48029934  0.44153587  0.80668250     1.49400
Zn576      Zn  0.41651769  0.46192105  0.70705905     1.49100
Zn577      Zn  0.55397617  0.44814573  0.74426143     1.49500
O578        O  0.48643235  0.48146433  0.75193451    -1.83800
O579        O  0.46214979  0.56756168  0.80552355    -0.74400
O580        O  0.38414842  0.37455689  0.79629214    -0.74200
O581        O  0.38510028  0.52402864  0.66984659    -0.73700
O582        O  0.50153341  0.51738102  0.84474143    -0.74400
O583        O  0.44144193  0.61347216  0.70652753    -0.74000
O584        O  0.33792673  0.38510817  0.73718357    -0.74600
O585        O  0.50039681  0.37773984  0.69838402    -0.74000
O586        O  0.53201594  0.39216088  0.83582081    -0.74800
O587        O  0.46482749  0.43998821  0.66795499    -0.74100
O588        O  0.60074281  0.40581863  0.78810891    -0.74600
O589        O  0.62582901  0.54292254  0.73498235    -0.74500
O590        O  0.58595955  0.61527898  0.74307777    -0.74300
C591        C  0.51033939  0.57092852  0.82857468     0.77500
C592        C  0.33409516  0.35664051  0.77059207     0.78000
C593        C  0.40264999  0.58597953  0.67503345     0.76900
C594        C  0.45966422  0.38357947  0.67292505     0.77300
C595        C  0.58267086  0.38578930  0.82396077     0.78400
C596        C  0.63389293  0.60208141  0.73574307     0.77500
Zn597      Zn  0.46920081  0.88618107  0.98510383     1.49700
Zn598      Zn  0.50249905  0.97032686  0.55105317     1.49400
Zn599      Zn  0.61490959  0.06125681  0.97355539     1.49100
Zn600      Zn  0.49533414  0.04443959  0.95620304     1.49500
O601        O  0.51886020  0.99111371  0.49413489    -1.83800
O602        O  0.41950473  0.80336445  0.53298363    -0.74400
O603        O  0.60174807  0.00964823  0.56928446    -0.74200
O604        O  0.61348892  0.99209762  0.93988104    -0.73700
O605        O  0.44649118  0.86984843  0.58373855    -0.74400
O606        O  0.56067557  0.89312113  0.97104857    -0.74000
O607        O  0.67696531  0.06573772  0.52004764    -0.74600
O608        O  0.54457505  0.13964879  0.92283511    -0.74000
O609        O  0.45115300  0.01986956  0.55633816    -0.74800
O610        O  0.64971838  0.16124322  0.93763316    -0.74100
O611        O  0.43446374  0.05108643  0.49448618    -0.74600
O612        O  0.46052029  0.97137520  0.91505370    -0.74500
O613        O  0.39297041  0.87157950  0.94199286    -0.74300
C614        C  0.41751422  0.80822250  0.57118204     0.77500
C615        C  0.66300690  0.03961528  0.55476909     0.78000
C616        C  0.61648858  0.94535646  0.95887659     0.76900
C617        C  0.61050399  0.18036556  0.91884661     0.77300
C618        C  0.42099124  0.03986526  0.53120184     0.78400
C619        C  0.40067426  0.91910903  0.91877712     0.77500
Zn620      Zn  0.39158185  0.47515426  0.50674364     1.49700
Zn621      Zn  0.50960186  0.54238275  0.54042338     1.49400
Zn622      Zn  0.50864945  0.39953226  0.50687451     1.49100
Zn623      Zn  0.51507988  0.47554974  0.94067867     1.49500
O624        O  0.48032086  0.47210422  0.99706339    -1.83800
O625        O  0.36095011  0.53525014  0.54892017    -0.74400
O626        O  0.51702823  0.48273857  0.57966508    -0.74200
O627        O  0.40498044  0.32697739  0.52230048    -0.73700
O628        O  0.46484358  0.59640670  0.57494316    -0.74400
O629        O  0.34079543  0.37913026  0.51888118    -0.74000
O630        O  0.58439517  0.45198809  0.55292929    -0.74600
O631        O  0.56242502  0.42363259  0.91038995    -0.74000
O632        O  0.59997243  0.60086840  0.01252046    -0.74800
O633        O  0.56242968  0.36388309  0.96010773    -0.74100
O634        O  0.59968530  0.56471812  0.95003472    -0.74600
O635        O  0.42494377  0.45056225  0.90834921    -0.74500
O636        O  0.38255680  0.49189753  0.95012261    -0.74300
C637        C  0.40039470  0.58226226  0.57454116     0.77500
C638        C  0.57817951  0.49400696  0.57451282     0.78000
C639        C  0.34684245  0.32755090  0.52502203     0.76900
C640        C  0.57932105  0.38099886  0.92318565     0.77300
C641        C  0.62998736  0.60357485  0.98010723     0.78400
C642        C  0.37343971  0.44337607  0.92819136     0.77500
C643        C  0.66823262  0.32748626  0.83387130     0.45800
H644        H  0.66677973  0.32851965  0.80096600    -0.03200
C645        C  0.66904206  0.32432753  0.91048941     0.45900
H646        H  0.67025311  0.32311288  0.94338757    -0.03200
C647        C  0.63699416  0.24983040  0.84980474    -0.16900
C648        C  0.74857828  0.37504827  0.85109568    -0.16700
C649        C  0.62081674  0.35642078  0.85195965    -0.17000
C650        C  0.63888442  0.24845318  0.89219099    -0.17000
C651        C  0.74803608  0.37405729  0.89358694    -0.16600
C652        C  0.61933663  0.35365352  0.89456055    -0.16900
C653        C  0.70887002  0.69427637  0.83360612    -0.08800
C654        C  0.71124102  0.75612905  0.83016910     0.07400
C655        C  0.64815522  0.75384712  0.81718400    -0.02600
C656        C  0.58432779  0.69301595  0.81770403    -0.07000
C657        C  0.58081531  0.63278822  0.82872217     0.06500
C658        C  0.64466693  0.63320761  0.83476632    -0.02000
Br659      Br  0.65023020  0.55419037  0.84502866    -0.01700
H660        H  0.75711746  0.69407292  0.83942832     0.10400
H661        H  0.53666031  0.69296466  0.80922399     0.08400
Br662      Br  0.64139440  0.82533870  0.79194342    -0.02200
C663        C  0.66765738  0.89573618  0.88327311    -0.08800
C664        C  0.73292074  0.93982423  0.86680184     0.07400
C665        C  0.73761331  0.98650174  0.83870005    -0.02600
C666        C  0.67694370  0.98784794  0.82702036    -0.07000
C667        C  0.61069940  0.93865587  0.84110191     0.06500
C668        C  0.60625691  0.89311273  0.86990361    -0.02000
Br669      Br  0.51666559  0.82195482  0.88766345    -0.01700
H670        H  0.66435073  0.86090255  0.90517017     0.10400
H671        H  0.68057715  0.02379756  0.80511252     0.08400
Br672      Br  0.82477533  0.03964182  0.81279114    -0.02200
C673        C  0.69674182  0.71936920  0.97445204    -0.08800
C674        C  0.69942035  0.66081412  0.97474181     0.07400
C675        C  0.74632433  0.65537225  0.94970425    -0.02600
C676        C  0.77912662  0.70415494  0.92046490    -0.07000
C677        C  0.75558962  0.74947976  0.91317439     0.06500
C678        C  0.70499442  0.74815700  0.93779396    -0.02000
Br679      Br  0.61892251  0.73572166  0.91562771    -0.01700
H680        H  0.66043854  0.72292138  0.99375390     0.10400
H681        H  0.81755881  0.70320065  0.90188306     0.08400
Br682      Br  0.76000290  0.57983076  0.95166934    -0.02200
C683        C  0.75428272  0.89772745  0.97241617    -0.08800
C684        C  0.80151481  0.94497063  0.94557107     0.07400
C685        C  0.80514192  0.00698983  0.94352227    -0.02600
C686        C  0.74609189  0.01043397  0.95249951    -0.07000
C687        C  0.68580279  0.95199538  0.96589709     0.06500
C688        C  0.69380092  0.89896889  0.98137322    -0.02000
Br689      Br  0.62454199  0.82671217  0.01262692    -0.01700
H690        H  0.75878084  0.85520379  0.98161759     0.10400
H691        H  0.74475829  0.05546305  0.94459274     0.08400
Br692      Br  0.88245033  0.08025908  0.91949666    -0.02200
C693        C  0.17842355  0.21497773  0.57720971    -0.08800
C694        C  0.16802382  0.15194434  0.56694555     0.07400
C695        C  0.19724872  0.14854713  0.53085291    -0.02600
C696        C  0.25800512  0.20589695  0.51794695    -0.07000
C697        C  0.28208718  0.26762119  0.53706248     0.06500
C698        C  0.23811656  0.27342706  0.56428808    -0.02000
Br699      Br  0.26137508  0.35837601  0.58841700    -0.01700
H700        H  0.14821736  0.21854389  0.60054025     0.10400
H701        H  0.28567414  0.20248358  0.49300398     0.08400
Br702      Br  0.15621401  0.07022782  0.49719442    -0.02200
C703        C  0.33128281  0.21113754  0.63031677    -0.08800
C704        C  0.26586638  0.20325294  0.64067386     0.07400
C705        C  0.26650388  0.25795653  0.65857750    -0.02600
C706        C  0.33011035  0.31923788  0.66292801    -0.07000
C707        C  0.39513826  0.32391586  0.65705611     0.06500
C708        C  0.39541190  0.26980047  0.63939011    -0.02000
Br709      Br  0.48176760  0.27273153  0.62931947    -0.01700
H710        H  0.33458557  0.16894729  0.62078257     0.10400
H711        H  0.32838690  0.36314900  0.67137164     0.08400
Br712      Br  0.18303761  0.25018537  0.67938802    -0.02200
C713        C  0.29712443  0.99569334  0.65078219    -0.08800
C714        C  0.28780270  0.04809163  0.66295572     0.07400
C715        C  0.34643180  0.10410947  0.68304879    -0.02600
C716        C  0.41307198  0.11159614  0.68186986    -0.07000
C717        C  0.42352768  0.06317120  0.66380812     0.06500
C718        C  0.36365344  0.00405243  0.64831901    -0.02000
Br719      Br  0.36514807  0.93056547  0.62372297    -0.01700
H720        H  0.25197453  0.94866206  0.64078640     0.10400
H721        H  0.45666648  0.15445257  0.69708830     0.08400
Br722      Br  0.34450946  0.16947566  0.71758477    -0.02200
C723        C  0.29938379  0.97146458  0.54761760    -0.08800
C724        C  0.35787245  0.03607496  0.54323220     0.07400
C725        C  0.35246306  0.09288233  0.54808578    -0.02600
C726        C  0.29125467  0.08415619  0.56344234    -0.07000
C727        C  0.23875138  0.02089007  0.57724413     0.06500
C728        C  0.23943047  0.96292879  0.56488509    -0.02000
Br729      Br  0.16713685  0.87161823  0.57265714    -0.01700
H730        H  0.30231356  0.92739031  0.53996291     0.10400
H731        H  0.28677652  0.12781208  0.56674890     0.08400
Br732      Br  0.42703786  0.18193834  0.53531085    -0.02200
C733        C  0.88182109  0.15826291  0.72201107    -0.08800
C734        C  0.89908715  0.11250812  0.70585440     0.07400
C735        C  0.85418180  0.04387462  0.71303260    -0.02600
C736        C  0.78410288  0.02051494  0.72201969    -0.07000
C737        C  0.76165346  0.06681392  0.72841404     0.06500
C738        C  0.81333142  0.13612497  0.73313722    -0.02000
Br739      Br  0.79332931  0.20556451  0.74681613    -0.01700
H740        H  0.91550881  0.21195975  0.71843663     0.10400
H741        H  0.74722855  0.96690684  0.72324459     0.08400
Br742      Br  0.88765680  0.98329970  0.70664217    -0.02200
C743        C  0.79699979  0.08563344  0.63559759    -0.08800
C744        C  0.83728135  0.05817520  0.62286857     0.07400
C745        C  0.80931564  0.01213423  0.59077397    -0.02600
C746        C  0.75231527  0.00663949  0.56828879    -0.07000
C747        C  0.71908778  0.04175561  0.57939131     0.06500
C748        C  0.73722469  0.07558532  0.61538641    -0.02000
Br749      Br  0.68688245  0.11589891  0.63559190    -0.01700
H750        H  0.81446340  0.12110314  0.65859339     0.10400
H751        H  0.73450534  0.97564042  0.54219137     0.08400
Br752      Br  0.85055464  0.96067702  0.57466254    -0.02200
C753        C  0.01244360  0.40590469  0.64334357    -0.08800
C754        C  0.94334738  0.38766600  0.65357835     0.07400
C755        C  0.89105014  0.31934145  0.65105479    -0.02600
C756        C  0.90963020  0.27131212  0.64179815    -0.07000
C757        C  0.98003391  0.28923058  0.63572722     0.06500
C758        C  0.03149531  0.35785061  0.63612221    -0.02000
Br759      Br  0.12814279  0.38906485  0.62668225    -0.01700
H760        H  0.05274460  0.45822814  0.64142204     0.10400
H761        H  0.86877609  0.22028970  0.63846764     0.08400
Br762      Br  0.79373499  0.29020385  0.65706037    -0.02200
C763        C  0.89551953  0.20366772  0.55384485    -0.08800
C764        C  0.96569677  0.22020081  0.55887975     0.07400
C765        C  0.01784853  0.28161035  0.54440253    -0.02600
C766        C  0.00543450  0.33436651  0.54231954    -0.07000
C767        C  0.93756677  0.32269461  0.54812218     0.06500
C768        C  0.88060119  0.25529434  0.54910682    -0.02000
Br769      Br  0.78385241  0.23089749  0.55096859    -0.01700
H770        H  0.85337368  0.15375700  0.56120557     0.10400
H771        H  0.05038641  0.38463577  0.53984166     0.08400
Br772      Br  0.10833602  0.29743839  0.53375716    -0.02200
C773        C  0.90467349  0.76786427  0.70883022    -0.08800
C774        C  0.94896147  0.80988621  0.67869801     0.07400
C775        C  0.01383060  0.81421361  0.67576559    -0.02600
C776        C  0.02586849  0.76572056  0.69336938    -0.07000
C777        C  0.97281303  0.71202601  0.71493111     0.06500
C778        C  0.91390849  0.71637946  0.72528063    -0.02000
Br779      Br  0.84160191  0.65024562  0.75830276    -0.01700
H780        H  0.85795371  0.76859095  0.71588326     0.10400
H781        H  0.07446361  0.76726016  0.68738511     0.08400
Br782      Br  0.08374179  0.88347500  0.64545128    -0.02200
C783        C  0.90553277  0.69285404  0.62180391    -0.08800
C784        C  0.93367131  0.75047795  0.59743087     0.07400
C785        C  0.95901945  0.74760339  0.56057221    -0.02600
C786        C  0.94789700  0.68587351  0.54682640    -0.07000
C787        C  0.91835835  0.62905970  0.57141496     0.06500
C788        C  0.89982625  0.63339145  0.60952190    -0.02000
Br789      Br  0.86258634  0.55691925  0.64419311    -0.01700
H790        H  0.88420529  0.69132623  0.64980856     0.10400
H791        H  0.96214896  0.68197273  0.51739824     0.08400
Br792      Br  0.00473208  0.82747932  0.52897377    -0.02200
C793        C  0.76071768  0.69139291  0.66152512    -0.08800
C794        C  0.75834862  0.75097734  0.66100497     0.07400
C795        C  0.73066793  0.76677475  0.69277171    -0.02600
C796        C  0.70466177  0.72190886  0.72383863    -0.07000
C797        C  0.69657945  0.65733407  0.72031282     0.06500
C798        C  0.72804752  0.64329454  0.68945352    -0.02000
Br799      Br  0.71894753  0.55720416  0.67779457    -0.01700
H800        H  0.78526784  0.68009199  0.63869785     0.10400
H801        H  0.67954837  0.73277034  0.74703215     0.08400
Br802      Br  0.71898740  0.84327267  0.69204748    -0.02200
C803        C  0.62155874  0.61396405  0.59447849    -0.08800
C804        C  0.63789217  0.56533896  0.58166579     0.07400
C805        C  0.70568389  0.58941247  0.56751178    -0.02600
C806        C  0.75371047  0.65928943  0.56502892    -0.07000
C807        C  0.73775682  0.70841186  0.57816672     0.06500
C808        C  0.66804646  0.68372252  0.58997353    -0.02000
Br809      Br  0.63384256  0.74298502  0.60161691    -0.01700
H810        H  0.57016778  0.59772868  0.60575927     0.10400
H811        H  0.80573249  0.67406572  0.55567095     0.08400
Br812      Br  0.73732953  0.52907554  0.55400217    -0.02200
C813        C  0.27510484  0.07810403  0.80811597    -0.08800
C814        C  0.20717207  0.02321683  0.80108385     0.07400
C815        C  0.19422387  0.99070772  0.76425909    -0.02600
C816        C  0.24780777  0.98350723  0.74902300    -0.07000
C817        C  0.31534874  0.02035898  0.76686296     0.06300
C818        C  0.33066515  0.07474108  0.79276397    -0.02000
Br819      Br  0.42386024  0.14209227  0.81089910    -0.01700
H820        H  0.28582815  0.11297001  0.83228601     0.10400
H821        H  0.23596676  0.94729219  0.72552154     0.08400
Br822      Br  0.10406878  0.95268766  0.73782127    -0.02200
C823        C  0.14303956  0.79365722  0.87684482    -0.08800
C824        C  0.08921173  0.80454348  0.86236442     0.07400
C825        C  0.03054864  0.75214807  0.84252326    -0.02600
C826        C  0.02831581  0.69158820  0.83496876    -0.07000
C827        C  0.08457673  0.68285906  0.84714420     0.06500
C828        C  0.14066387  0.73293593  0.86973140    -0.02000
Br829      Br  0.21344899  0.71917602  0.89142285    -0.01700
H830        H  0.18748908  0.83271007  0.89340750     0.10400
H831        H  0.98448972  0.65274492  0.81751848     0.08400
Br832      Br  0.95431843  0.76343862  0.82501554    -0.02200
C833        C  0.32749547  0.96513707  0.93198164    -0.08800
C834        C  0.34119014  0.92662923  0.90637794     0.07400
C835        C  0.31727360  0.91947475  0.86684934    -0.02600
C836        C  0.27587300  0.94708945  0.85494909    -0.07000
C837        C  0.26541882  0.98964934  0.88070435     0.06500
C838        C  0.29983505  0.00397767  0.91805725    -0.02000
Br839      Br  0.31218406  0.07703857  0.95044569    -0.01700
H840        H  0.34121426  0.96672463  0.96276954     0.10400
H841        H  0.24953817  0.93200140  0.82627893     0.08400
Br842      Br  0.33292527  0.86575684  0.83022434    -0.02200
C843        C  0.00984778  0.74630530  0.94853209    -0.08800
C844        C  0.06550366  0.73942688  0.96339069     0.07400
C845        C  0.13170744  0.79695035  0.97216678    -0.02600
C846        C  0.14369377  0.85999874  0.96038864    -0.07000
C847        C  0.09083602  0.86424834  0.93901130     0.06500
C848        C  0.02221280  0.80966972  0.93848193    -0.02000
Br849      Br  0.94808182  0.82151642  0.91936638    -0.01700
H850        H  0.95723849  0.70277140  0.94475755     0.10400
H851        H  0.19652079  0.90299249  0.96240761     0.08400
Br852      Br  0.21008494  0.79085872  0.99299279    -0.02200
C853        C  0.23420765  0.24121632  0.77756975    -0.08800
C854        C  0.26756910  0.31023436  0.78578725     0.07400
C855        C  0.25083517  0.33411304  0.81864043    -0.02600
C856        C  0.20354944  0.28863610  0.84424480    -0.07000
C857        C  0.16883346  0.21875341  0.83808427     0.06500
C858        C  0.18230890  0.19520079  0.80267838    -0.02000
Br859      Br  0.13070492  0.10346862  0.78540134    -0.01700
H860        H  0.24952051  0.22330039  0.75243529     0.10400
H861        H  0.19264814  0.31027739  0.86860496     0.08400
Br862      Br  0.29829876  0.42945373  0.83234282    -0.02200
C863        C  0.18409752  0.30587246  0.94399260    -0.08800
C864        C  0.18075258  0.24767347  0.92765653     0.07400
C865        C  0.24590190  0.25235645  0.92084940    -0.02600
C866        C  0.30879957  0.31599348  0.92222026    -0.07000
C867        C  0.30854792  0.37552253  0.93159980     0.06500
C868        C  0.24559160  0.36880464  0.94481580    -0.02000
Br869      Br  0.23497221  0.44411882  0.95831310    -0.01700
H870        H  0.13736250  0.30724024  0.94997674     0.10400
H871        H  0.35740806  0.31919009  0.91418914     0.08400
Br872      Br  0.25041007  0.17568377  0.90390175    -0.02200
C873        C  0.02878393  0.23122650  0.78261330    -0.08800
C874        C  0.98178254  0.20343082  0.81440195     0.07400
C875        C  0.92891211  0.22026227  0.81731258    -0.02600
C876        C  0.93707067  0.27637663  0.79734816    -0.07000
C877        C  0.99370751  0.31328925  0.77273061     0.06500
C878        C  0.03689821  0.28818926  0.76269246    -0.02000
Br879      Br  0.12083504  0.34199558  0.73322756    -0.01700
H880        H  0.06889519  0.21856458  0.77841590     0.10400
H881        H  0.90258575  0.29527281  0.80407373     0.08400
Br882      Br  0.85121686  0.17952752  0.85244382    -0.02200
C883        C  0.95995325  0.26492919  0.92110951    -0.08800
C884        C  0.00932713  0.27108944  0.89395490     0.07400
C885        C  0.05284438  0.33527317  0.87605191    -0.02600
C886        C  0.05120362  0.39101734  0.88819875    -0.07000
C887        C  0.00720989  0.38458091  0.91753650     0.06500
C888        C  0.95551197  0.32087049  0.93057161    -0.02000
Br889      Br  0.87513141  0.30862651  0.95710383    -0.01700
H890        H  0.92375625  0.21673747  0.93410712     0.10400
H891        H  0.08963348  0.44107151  0.87779896     0.08400
Br892      Br  0.12213022  0.36096370  0.83834071    -0.02200
loop_ 
_geom_bond_atom_site_label_1 
_geom_bond_atom_site_label_2 
_geom_bond_distance 
_geom_bond_site_symmetry_2 
_ccdc_geom_bond_type 
C1            H2   1.110       .  S
C1            C7   1.637       .  S
C1            C6   1.633       .  S
C1            C5   1.653       .  S
C3            H4   1.110       .  S
C3            C9   1.618       .  S
C3            C8   1.626       .  S
C3           C10   1.641       .  S
C5            C8   1.437       .  D
C5          C168   1.644       .  S
C6            C9   1.423       .  D
C6           C52   1.605       .  S
C7           C10   1.439       .  D
C7          C191   1.651       .  S
C8          C125   1.625       .  S
C9           C80   1.619       .  S
C10         C147   1.619       .  S
C11          C12   1.412       .  A
C11          C16   1.399       .  A
C11         C428   1.493   1_455  S
C12          C13   1.404       .  A
C12         C438   1.474       .  S
C13          C14   1.408       .  A
C13          H18   1.083       .  S
C14          C15   1.452       .  A
C14         C418   1.530       .  S
C15          C16   1.415       .  A
C15         C411   1.490       .  S
C16          H17   1.076       .  S
C19          C20   1.415       .  A
C19          C24   1.396       .  A
C19         C378   1.485       .  S
C20          C21   1.389       .  A
C20         C401   1.455       .  S
C21          C22   1.398   1_565  A
C21          H26   1.076       .  S
C22          C23   1.419   1_545  A
C22         C391   1.517   1_545  S
C23          C24   1.417       .  A
C23         C368   1.489   1_565  S
C24          H25   1.077       .  S
C27          C28   1.435       .  A
C27          C32   1.411       .  A
C27         C348   1.452       .  S
C28          C29   1.398       .  A
C28         C361   1.535       .  S
C29          C30   1.422       .  A
C29          H34   1.082       .  S
C30          C31   1.430       .  A
C30         C338   1.479       .  S
C31          C32   1.395       .  A
C31         C328   1.514       .  S
C32          H33   1.080       .  S
Zn35         O39   1.948   1_455  S
Zn35         O40   2.251       .  S
Zn35         O51   1.976   1_455  S
Zn35        O490   1.944   1_554  S
Zn36         O39   1.988   1_455  S
Zn36         O43   2.220       .  S
Zn36         O47   1.947   1_455  S
Zn36        O487   1.949       .  S
Zn37        O485   1.954       .  S
Zn37         O42   1.936   1_655  S
Zn37         O45   2.009   1_655  S
Zn37         O48   2.252       .  S
Zn38         O39   2.071       .  S
Zn38         O49   1.987       .  S
Zn38         O50   2.001       .  S
Zn38        O492   2.204   1_554  S
O39        Zn483   1.954   1_554  S
O40          C52   1.290       .  A
O41        Zn482   1.949       .  S
O41          C53   1.275       .  A
O42          C54   1.274       .  A
O43          C52   1.284       .  A
O44        Zn481   1.944       .  S
O44          C54   1.275       .  A
O45          C53   1.284       .  A
O46        Zn484   2.204       .  S
O46          C55   1.286       .  A
O47          C56   1.267       .  A
O48          C55   1.292       .  A
O49          C56   1.274       .  A
O50          C57   1.269       .  A
O51          C57   1.270       .  A
C53         C398   1.438       .  S
C54         C441   1.421       .  S
C55         C205   1.605       .  S
C56         C341   1.436       .  S
C57         C321   1.462       .  S
Zn58         O62   2.025       .  S
Zn58         O63   2.016       .  S
Zn58         O67   2.007       .  S
Zn58         O74   2.319       .  S
Zn59         O62   1.982   1_655  S
Zn59         O64   2.258       .  S
Zn59         O66   2.003   1_655  S
Zn59         O70   1.983   1_655  S
Zn60         O62   2.075   1_655  S
Zn60         O65   2.104       .  S
Zn60         O68   2.339       .  S
Zn60         O71   2.123       .  S
Zn61         O62   2.000       .  S
Zn61         O69   1.963   1_455  S
Zn61         O72   2.006       .  S
Zn61         O73   2.207       .  S
O63          C75   1.281       .  A
O64          C76   1.291       .  A
O65          C77   1.295       .  A
O66          C75   1.278       .  A
O67          C77   1.282   1_455  A
O68          C76   1.304       .  A
O69          C78   1.254       .  A
O70          C79   1.285       .  A
O71          C78   1.282       .  A
O72          C79   1.280       .  A
O73          C80   1.279       .  A
O74          C80   1.299       .  A
C75         C381   1.459       .  S
C76         C202   1.646       .  S
C77         C331   1.488       .  S
C78         C308   1.495       .  S
C79         C431   1.445   1_455  S
C81          C82   1.425       .  A
C81          C86   1.396       .  A
C81         C311   1.501       .  S
C82          C83   1.394       .  A
C82         C318   1.468       .  S
C83          C84   1.406       .  A
C83          H88   1.082       .  S
C84          C85   1.439       .  A
C84         C298   1.504       .  S
C85          C86   1.404       .  A
C85         C288   1.495       .  S
C86          H87   1.070   1_655  S
C89          C90   1.447       .  A
C89          C94   1.396       .  A
C89         C268   1.511       .  S
C90          C91   1.403       .  A
C90         C281   1.483       .  S
C91          C92   1.407       .  A
C91          H96   1.076       .  S
C92          C93   1.438       .  A
C92         C248   1.500       .  S
C93          C94   1.397       .  A
C93         C258   1.497       .  S
C94          H95   1.074       .  S
C97          C98   1.424       .  A
C97         C102   1.405       .  A
C97         C218   1.480       .  S
C98          C99   1.390       .  A
C98         C238   1.492       .  S
C99         C100   1.409       .  A
C99         H104   1.086       .  S
C100        C101   1.425       .  A
C100        C231   1.461       .  S
C101        C102   1.394       .  A
C101        C208   1.506       .  S
C102        H103   1.077       .  S
Zn105       O109   2.067   1_545  S
Zn105       O110   2.309       .  S
Zn105       O114   2.070       .  S
Zn105       O121   1.997       .  S
Zn106       O109   2.010   1_545  S
Zn106       O111   1.970       .  S
Zn106       O113   2.244       .  S
Zn106       O117   1.991   1_545  S
Zn107       O109   2.014       .  S
Zn107       O112   1.974   1_565  S
Zn107       O115   2.033       .  S
Zn107       O118   2.252       .  S
Zn108       O109   2.026       .  S
Zn108       O116   2.299       .  S
Zn108       O119   1.996       .  S
Zn108       O120   2.012       .  S
O110        C122   1.298       .  A
O111        C123   1.278   1_545  A
O112        C124   1.261       .  A
O113        C122   1.288       .  A
O114        C124   1.279       .  A
O115        C123   1.282       .  A
O116        C125   1.297       .  A
O117        C126   1.277       .  A
O118        C125   1.288       .  A
O119        C126   1.279       .  A
O120        C127   1.282   1_565  A
O121        C127   1.279       .  A
C122        C201   1.633       .  S
C123        C371   1.458   1_565  S
C124        C271   1.484       .  S
C126        C221   1.455       .  S
C127        C291   1.474       .  S
Zn128       O132   2.006       .  S
Zn128       O133   1.969       .  S
Zn128       O137   2.272       .  S
Zn128       O144   1.899       .  S
Zn129       O132   2.031       .  S
Zn129       O134   1.906       .  S
Zn129       O136   2.023       .  S
Zn129       O140   2.193       .  S
Zn130       O132   2.011       .  S
Zn130       O135   2.243       .  S
Zn130       O138   2.027       .  S
Zn130       O141   1.948       .  S
Zn131       O132   2.024       .  S
Zn131       O139   2.098       .  S
Zn131       O142   2.262       .  S
Zn131       O143   1.963       .  S
O133        C145   1.270       .  A
O134        C146   1.276       .  A
O135        C147   1.285       .  A
O136        C145   1.266       .  A
O137        C147   1.291       .  A
O138        C146   1.281       .  A
O139        C148   1.281       .  A
O140        C149   1.279       .  A
O141        C148   1.255       .  A
O142        C149   1.290       .  A
O143        C150   1.281       .  A
O144        C150   1.276       .  A
C145        C211   1.479       .  S
C146        C408   1.413       .  S
C148        C261   1.474       .  S
C149        C203   1.608       .  S
C150        C351   1.428       .  S
Zn151       O601   2.102       .  S
Zn151       O160   2.019       .  S
Zn151       O167   2.086       .  S
Zn151       O602   2.313       .  S
Zn152       O155   1.973   1_554  S
Zn152       O157   1.978   1_565  S
Zn152       O159   2.281       .  S
Zn152       O163   1.993   1_565  S
Zn153       O601   2.040   1_545  S
Zn153       O158   1.953   1_545  S
Zn153       O164   2.355       .  S
Zn153       O607   2.020       .  S
Zn154       O601   1.999   1_545  S
Zn154       O162   2.200       .  S
Zn154       O166   2.002   1_545  S
Zn154       O611   1.957       .  S
O155       Zn597   2.102       .  S
O155       Zn599   2.040   1_565  S
O155       Zn600   1.999   1_565  S
O156       Zn597   2.313   1_554  S
O156        C168   1.298       .  A
O157        C169   1.277       .  A
O158        C170   1.277       .  A
O159        C168   1.292       .  A
O160        C170   1.281       .  A
O161       Zn599   2.020   1_554  S
O161        C169   1.283       .  A
O162        C171   1.279       .  A
O163        C172   1.284       .  A
O164        C171   1.304       .  A
O165       Zn600   1.957       .  S
O165        C172   1.275   1_556  A
O166        C173   1.262       .  A
O167        C173   1.281       .  A
C169        C301   1.452       .  S
C170        C241   1.473       .  S
C171        C204   1.631       .  S
C172        C278   1.426       .  S
C173        C388   1.462       .  S
Zn174       O624   2.037   1_554  S
Zn174       O179   2.337       .  S
Zn174       O183   1.946       .  S
Zn174       O636   1.968   1_554  S
Zn175       O624   2.024   1_554  S
Zn175       O180   1.961       .  S
Zn175       O182   2.292       .  S
Zn175       O632   2.007       .  S
Zn176       O624   2.085   1_554  S
Zn176       O181   2.111       .  S
Zn176       O184   2.119       .  S
Zn176       O633   2.393   1_554  S
Zn177       O178   2.059       .  S
Zn177       O185   2.225       .  S
Zn177       O188   1.966       .  S
Zn177       O189   2.050       .  S
O178       Zn620   2.037       .  S
O178       Zn621   2.024       .  S
O178       Zn622   2.085       .  S
O179        C191   1.299       .  A
O180        C192   1.258       .  A
O181        C193   1.300       .  A
O182        C191   1.290       .  A
O183        C193   1.276       .  A
O184        C192   1.282       .  A
O185        C194   1.284       .  A
O186       Zn621   2.007       .  S
O186        C195   1.281       .  A
O187       Zn622   2.393       .  S
O187        C194   1.309       .  A
O188        C195   1.282       .  A
O189        C196   1.275       .  A
O190       Zn620   1.968       .  S
O190        C196   1.271       .  A
C192        C358   1.507       .  S
C193        C251   1.457       .  S
C194        C206   1.659       .  S
C195        C228   1.439       .  S
C196        C421   1.492       .  S
C197        H198   1.110       .  S
C197        C203   1.638       .  S
C197        C202   1.629       .  S
C197        C201   1.644       .  S
C199        H200   1.110       .  S
C199        C205   1.640       .  S
C199        C204   1.638       .  S
C199        C206   1.635       .  S
C201        C204   1.429       .  D
C202        C205   1.433       .  D
C203        C206   1.438       .  D
C207        C208   1.402       .  A
C207        C212   1.398       .  A
C207        H214   1.082       .  S
C208        C209   1.425       .  A
C209        C210   1.390       .  A
C209       Br216   1.917       .  S
C210        C211   1.396       .  A
C210        H215   1.084       .  S
C211        C212   1.417       .  A
C212       Br213   1.914       .  S
C217        C218   1.401       .  A
C217        C222   1.390       .  A
C217        H224   1.061       .  S
C218        C219   1.391       .  A
C219        C220   1.403       .  A
C219       Br226   1.910   1_565  S
C220        C221   1.410       .  A
C220        H225   1.077   1_565  S
C221        C222   1.390       .  A
C222       Br223   1.924       .  S
C227        C228   1.380       .  A
C227        C232   1.369       .  A
C227        H234   1.085       .  S
C228        C229   1.413       .  A
C229        C230   1.396       .  A
C229       Br236   1.913       .  S
C230        C231   1.402       .  A
C230        H235   1.081       .  S
C231        C232   1.402       .  A
C232       Br233   1.905       .  S
C237        C238   1.403       .  A
C237        C242   1.396       .  A
C237        H244   1.076       .  S
C238        C239   1.390   1_565  A
C239        C240   1.392       .  A
C239       Br246   1.879       .  S
C240        C241   1.408   1_545  A
C240        H245   1.083       .  S
C241        C242   1.414       .  A
C242       Br243   1.919       .  S
C247        C248   1.395       .  A
C247        C252   1.396       .  A
C247        H254   1.079       .  S
C248        C249   1.417       .  A
C249        C250   1.396       .  A
C249       Br256   1.916   1_554  S
C250        C251   1.394       .  A
C250        H255   1.082   1_554  S
C251        C252   1.414       .  A
C252       Br253   1.932       .  S
C257        C258   1.418       .  A
C257        C262   1.397       .  A
C257        H264   1.065       .  S
C258        C259   1.397       .  A
C259        C260   1.397       .  A
C259       Br266   1.917       .  S
C260        C261   1.407       .  A
C260        H265   1.073       .  S
C261        C262   1.390       .  A
C262       Br263   1.918       .  S
C267        C268   1.393   1_565  A
C267        C272   1.389   1_565  A
C267        H274   1.079       .  S
C268        C269   1.434       .  A
C269        C270   1.396       .  A
C269       Br276   1.932       .  S
C270        C271   1.399       .  A
C270        H275   1.083       .  S
C271        C272   1.417       .  A
C272       Br273   1.909   1_545  S
C277        C278   1.395   1_565  A
C277        C282   1.384       .  A
C277        H284   1.084       .  S
C278        C279   1.386       .  A
C279        C280   1.381       .  A
C279       Br286   1.917       .  S
C280        C281   1.406       .  A
C280        H285   1.067       .  S
C281        C282   1.411   1_545  A
C282       Br283   1.903       .  S
C287        C288   1.411       .  A
C287        C292   1.392       .  A
C287        H294   1.076       .  S
C288        C289   1.394       .  A
C289        C290   1.399       .  A
C289       Br296   1.902   1_545  S
C290        C291   1.409       .  A
C290        H295   1.078   1_545  S
C291        C292   1.417       .  A
C292       Br293   1.929       .  S
C297        C298   1.409       .  A
C297        C302   1.379       .  A
C297        H304   1.044       .  S
C298        C299   1.411       .  A
C299        C300   1.401       .  A
C299       Br306   1.920   1_545  S
C300        C301   1.403       .  A
C300        H305   1.070   1_545  S
C301        C302   1.383       .  A
C302       Br303   1.921       .  S
C307        C308   1.416   1_455  A
C307        C312   1.397       .  A
C307        H314   1.074       .  S
C308        C309   1.398       .  A
C309        C310   1.404       .  A
C309       Br316   1.917       .  S
C310        C311   1.414       .  A
C310        H315   1.058       .  S
C311        C312   1.397   1_655  A
C312       Br313   1.912       .  S
C317        C318   1.402       .  A
C317        C322   1.394       .  A
C317        H324   1.079       .  S
C318        C319   1.386   1_655  A
C319        C320   1.377       .  A
C319       Br326   1.889       .  S
C320        C321   1.404   1_455  A
C320        H325   1.077       .  S
C321        C322   1.414       .  A
C322       Br323   1.918       .  S
C327        C328   1.414       .  A
C327        C332   1.408       .  A
C327        H334   1.077       .  S
C328        C329   1.394   1_655  A
C329        C330   1.397       .  A
C329       Br336   1.876       .  S
C330        C331   1.408   1_455  A
C330        H335   1.083       .  S
C331        C332   1.412       .  A
C332       Br333   1.923       .  S
C337        C338   1.410       .  A
C337        C342   1.377       .  A
C337        H344   1.061       .  S
C338        C339   1.396       .  A
C339        C340   1.395       .  A
C339       Br346   1.914   1_655  S
C340        C341   1.401       .  A
C340        H345   1.069       .  S
C341        C342   1.381       .  A
C342       Br343   1.918       .  S
C347        C348   1.400       .  A
C347        C352   1.355       .  A
C347        H354   1.063       .  S
C348        C349   1.390       .  A
C349        C350   1.379       .  A
C349       Br356   1.908       .  S
C350        C351   1.410       .  A
C350        H355   1.076       .  S
C351        C352   1.399       .  A
C352       Br353   1.932       .  S
C357        C358   1.417       .  A
C357        C362   1.405       .  A
C357        H364   1.080       .  S
C358        C359   1.405       .  A
C359        C360   1.407       .  A
C359       Br366   1.913       .  S
C360        C361   1.425       .  A
C360        H365   1.077       .  S
C361        C362   1.413       .  A
C362       Br363   1.918       .  S
C367        C368   1.397       .  A
C367        C372   1.387       .  A
C367        H374   1.083       .  S
C368        C369   1.401   1_545  A
C369        C370   1.393       .  A
C369       Br376   1.913       .  S
C370        C371   1.405   1_565  A
C370        H375   1.082       .  S
C371        C372   1.421       .  A
C372       Br373   1.924       .  S
C377        C378   1.410       .  A
C377        C382   1.396       .  A
C377        H384   1.077       .  S
C378        C379   1.396       .  A
C379        C380   1.396       .  A
C379       Br386   1.910   1_455  S
C380        C381   1.408       .  A
C380        H385   1.084   1_455  S
C381        C382   1.395       .  A
C382       Br383   1.917       .  S
C387        C388   1.390       .  A
C387        C392   1.389   1_565  A
C387        H394   1.069       .  S
C388        C389   1.399       .  A
C389        C390   1.405       .  A
C389       Br396   1.917       .  S
C390        C391   1.426       .  A
C390        H395   1.077       .  S
C391        C392   1.403   1_565  A
C392       Br393   1.911       .  S
C397        C398   1.398       .  A
C397        C402   1.381       .  A
C397        H404   1.084   1_455  S
C398        C399   1.408       .  A
C399        C400   1.392       .  A
C399       Br406   1.922       .  S
C400        C401   1.401       .  A
C400        H405   1.078       .  S
C401        C402   1.390       .  A
C402       Br403   1.890   1_455  S
C407        C408   1.394       .  A
C407        C412   1.398       .  A
C407        H414   1.083       .  S
C408        C409   1.384       .  A
C409        C410   1.361       .  A
C409       Br416   1.942       .  S
C410        C411   1.398       .  A
C410        H415   1.061       .  S
C411        C412   1.418       .  A
C412       Br413   1.903       .  S
C417        C418   1.421       .  A
C417        C422   1.390       .  A
C417        H424   1.076       .  S
C418        C419   1.416       .  A
C419        C420   1.413       .  A
C419       Br426   1.914       .  S
C420        C421   1.414       .  A
C420        H425   1.083       .  S
C421        C422   1.407       .  A
C422       Br423   1.927       .  S
C427        C428   1.419   1_455  A
C427        C432   1.398       .  A
C427        H434   1.080       .  S
C428        C429   1.415       .  A
C429        C430   1.381       .  A
C429       Br436   1.921       .  S
C430        C431   1.393       .  A
C430        H435   1.085       .  S
C431        C432   1.398   1_655  A
C432       Br433   1.925       .  S
C437        C438   1.398   1_655  A
C437        C442   1.383       .  A
C437        H444   1.080       .  S
C438        C439   1.427       .  A
C439        C440   1.371       .  A
C439       Br446   1.869       .  S
C440        C441   1.363       .  A
C440        H445   1.087       .  S
C441        C442   1.398   1_455  A
C442       Br443   1.904       .  S
C447        H448   1.110       .  S
C447        C453   1.637       .  S
C447        C452   1.633       .  S
C447        C451   1.653       .  S
C449        H450   1.110       .  S
C449        C455   1.618       .  S
C449        C454   1.626       .  S
C449        C456   1.641       .  S
C451        C454   1.437       .  D
C451        C614   1.644       .  S
C452        C455   1.423       .  D
C452        C498   1.605       .  S
C453        C456   1.439       .  D
C453        C637   1.651       .  S
C454        C571   1.625       .  S
C455        C526   1.619       .  S
C456        C593   1.619       .  S
C457        C458   1.412       .  A
C457        C462   1.399       .  A
C457        C874   1.493   1_455  S
C458        C459   1.404       .  A
C458        C884   1.474       .  S
C459        C460   1.408       .  A
C459        H464   1.083       .  S
C460        C461   1.452       .  A
C460        C864   1.530       .  S
C461        C462   1.415       .  A
C461        C857   1.490       .  S
C462        H463   1.076       .  S
C465        C466   1.415       .  A
C465        C470   1.396       .  A
C465        C824   1.485       .  S
C466        C467   1.389       .  A
C466        C847   1.455       .  S
C467        C468   1.398   1_565  A
C467        H472   1.076       .  S
C468        C469   1.419   1_545  A
C468        C837   1.517   1_545  S
C469        C470   1.417       .  A
C469        C814   1.489   1_565  S
C470        H471   1.077       .  S
C473        C474   1.435       .  A
C473        C478   1.411       .  A
C473        C794   1.452       .  S
C474        C475   1.398       .  A
C474        C807   1.535       .  S
C475        C476   1.422       .  A
C475        H480   1.082       .  S
C476        C477   1.430       .  A
C476        C784   1.479       .  S
C477        C478   1.395       .  A
C477        C774   1.514       .  S
C478        H479   1.080       .  S
Zn481       O485   1.948   1_455  S
Zn481       O486   2.251       .  S
Zn481       O497   1.976   1_455  S
Zn482       O485   1.988   1_455  S
Zn482       O489   2.220       .  S
Zn482       O493   1.947   1_455  S
Zn483       O488   1.936   1_655  S
Zn483       O491   2.009   1_655  S
Zn483       O494   2.252       .  S
Zn484       O485   2.071       .  S
Zn484       O495   1.987       .  S
Zn484       O496   2.001       .  S
O486        C498   1.290       .  A
O487        C499   1.275   1_554  A
O488        C500   1.274       .  A
O489        C498   1.284       .  A
O490        C500   1.275       .  A
O491        C499   1.284       .  A
O492        C501   1.286       .  A
O493        C502   1.267       .  A
O494        C501   1.292       .  A
O495        C502   1.274       .  A
O496        C503   1.269       .  A
O497        C503   1.270       .  A
C499        C844   1.438       .  S
C500        C887   1.421       .  S
C501        C651   1.605       .  S
C502        C787   1.436       .  S
C503        C767   1.462       .  S
Zn504       O508   2.025       .  S
Zn504       O509   2.016       .  S
Zn504       O513   2.007       .  S
Zn504       O520   2.319       .  S
Zn505       O508   1.982   1_655  S
Zn505       O510   2.258       .  S
Zn505       O512   2.003   1_655  S
Zn505       O516   1.983   1_655  S
Zn506       O508   2.075   1_655  S
Zn506       O511   2.104       .  S
Zn506       O514   2.339       .  S
Zn506       O517   2.123       .  S
Zn507       O508   2.000       .  S
Zn507       O515   1.963   1_455  S
Zn507       O518   2.006       .  S
Zn507       O519   2.207       .  S
O509        C521   1.281       .  A
O510        C522   1.291       .  A
O511        C523   1.295       .  A
O512        C521   1.278       .  A
O513        C523   1.282   1_455  A
O514        C522   1.304       .  A
O515        C524   1.254       .  A
O516        C525   1.285       .  A
O517        C524   1.282       .  A
O518        C525   1.280       .  A
O519        C526   1.279       .  A
O520        C526   1.299       .  A
C521        C827   1.459       .  S
C522        C648   1.646       .  S
C523        C777   1.488       .  S
C524        C754   1.495       .  S
C525        C877   1.445   1_455  S
C527        C528   1.425       .  A
C527        C532   1.396       .  A
C527        C757   1.501       .  S
C528        C529   1.394       .  A
C528        C764   1.468       .  S
C529        C530   1.406       .  A
C529        H534   1.082       .  S
C530        C531   1.439       .  A
C530        C744   1.504       .  S
C531        C532   1.404       .  A
C531        C734   1.495       .  S
C532        H533   1.070   1_655  S
C535        C536   1.447       .  A
C535        C540   1.396       .  A
C535        C714   1.511       .  S
C536        C537   1.403       .  A
C536        C727   1.483       .  S
C537        C538   1.407       .  A
C537        H542   1.076       .  S
C538        C539   1.438       .  A
C538        C694   1.500       .  S
C539        C540   1.397       .  A
C539        C704   1.497       .  S
C540        H541   1.074       .  S
C543        C544   1.424       .  A
C543        C548   1.405       .  A
C543        C664   1.480       .  S
C544        C545   1.390       .  A
C544        C684   1.492       .  S
C545        C546   1.409       .  A
C545        H550   1.086       .  S
C546        C547   1.425       .  A
C546        C677   1.461       .  S
C547        C548   1.394       .  A
C547        C654   1.506       .  S
C548        H549   1.077       .  S
Zn551       O555   2.067   1_545  S
Zn551       O556   2.309       .  S
Zn551       O560   2.070       .  S
Zn551       O567   1.997       .  S
Zn552       O555   2.010   1_545  S
Zn552       O557   1.970       .  S
Zn552       O559   2.244       .  S
Zn552       O563   1.991   1_545  S
Zn553       O555   2.014       .  S
Zn553       O558   1.974   1_565  S
Zn553       O561   2.033       .  S
Zn553       O564   2.252       .  S
Zn554       O555   2.026       .  S
Zn554       O562   2.299       .  S
Zn554       O565   1.996       .  S
Zn554       O566   2.012       .  S
O556        C568   1.298       .  A
O557        C569   1.278   1_545  A
O558        C570   1.261       .  A
O559        C568   1.288       .  A
O560        C570   1.279       .  A
O561        C569   1.282       .  A
O562        C571   1.297       .  A
O563        C572   1.277       .  A
O564        C571   1.288       .  A
O565        C572   1.279       .  A
O566        C573   1.282   1_565  A
O567        C573   1.279       .  A
C568        C647   1.634       .  S
C569        C817   1.458   1_565  S
C570        C717   1.484       .  S
C572        C667   1.455       .  S
C573        C737   1.474       .  S
Zn574       O578   2.006       .  S
Zn574       O579   1.969       .  S
Zn574       O583   2.272       .  S
Zn574       O590   1.899       .  S
Zn575       O578   2.031       .  S
Zn575       O580   1.906       .  S
Zn575       O582   2.023       .  S
Zn575       O586   2.193       .  S
Zn576       O578   2.011       .  S
Zn576       O581   2.243       .  S
Zn576       O584   2.027       .  S
Zn576       O587   1.948       .  S
Zn577       O578   2.024       .  S
Zn577       O585   2.098       .  S
Zn577       O588   2.262       .  S
Zn577       O589   1.963       .  S
O579        C591   1.270       .  A
O580        C592   1.276       .  A
O581        C593   1.285       .  A
O582        C591   1.266       .  A
O583        C593   1.291       .  A
O584        C592   1.281       .  A
O585        C594   1.281       .  A
O586        C595   1.279       .  A
O587        C594   1.255       .  A
O588        C595   1.290       .  A
O589        C596   1.281       .  A
O590        C596   1.276       .  A
C591        C657   1.479       .  S
C592        C854   1.413       .  S
C594        C707   1.474       .  S
C595        C649   1.608       .  S
C596        C797   1.427       .  S
Zn597       O606   2.019       .  S
Zn597       O613   2.086       .  S
Zn598       O601   1.973       .  S
Zn598       O603   1.978   1_565  S
Zn598       O605   2.281       .  S
Zn598       O609   1.993   1_565  S
Zn599       O604   1.953   1_545  S
Zn599       O610   2.355       .  S
Zn600       O608   2.200       .  S
Zn600       O612   2.002   1_545  S
O602        C614   1.298       .  A
O603        C615   1.277       .  A
O604        C616   1.277       .  A
O605        C614   1.292       .  A
O606        C616   1.281       .  A
O607        C615   1.283       .  A
O608        C617   1.279       .  A
O609        C618   1.284       .  A
O610        C617   1.304       .  A
O611        C618   1.275       .  A
O612        C619   1.262       .  A
O613        C619   1.281       .  A
C615        C747   1.452       .  S
C616        C687   1.473       .  S
C617        C650   1.631       .  S
C618        C724   1.426       .  S
C619        C834   1.462       .  S
Zn620       O625   2.337       .  S
Zn620       O629   1.946       .  S
Zn621       O626   1.961       .  S
Zn621       O628   2.292       .  S
Zn622       O627   2.111       .  S
Zn622       O630   2.118       .  S
Zn623       O624   2.059       .  S
Zn623       O631   2.225       .  S
Zn623       O634   1.966       .  S
Zn623       O635   2.050       .  S
O625        C637   1.299       .  A
O626        C638   1.258       .  A
O627        C639   1.300       .  A
O628        C637   1.290       .  A
O629        C639   1.276       .  A
O630        C638   1.282       .  A
O631        C640   1.284       .  A
O632        C641   1.281   1_554  A
O633        C640   1.309       .  A
O634        C641   1.282       .  A
O635        C642   1.275       .  A
O636        C642   1.271       .  A
C638        C804   1.507       .  S
C639        C697   1.457       .  S
C640        C652   1.659       .  S
C641        C674   1.439       .  S
C642        C867   1.492       .  S
C643        H644   1.110       .  S
C643        C649   1.638       .  S
C643        C648   1.629       .  S
C643        C647   1.644       .  S
C645        H646   1.110       .  S
C645        C651   1.640       .  S
C645        C650   1.638       .  S
C645        C652   1.635       .  S
C647        C650   1.429       .  D
C648        C651   1.433       .  D
C649        C652   1.438       .  D
C653        C654   1.402       .  A
C653        C658   1.398       .  A
C653        H660   1.082       .  S
C654        C655   1.425       .  A
C655        C656   1.390       .  A
C655       Br662   1.917       .  S
C656        C657   1.396       .  A
C656        H661   1.084       .  S
C657        C658   1.417       .  A
C658       Br659   1.914       .  S
C663        C664   1.401       .  A
C663        C668   1.390       .  A
C663        H670   1.061       .  S
C664        C665   1.391       .  A
C665        C666   1.403       .  A
C665       Br672   1.910   1_565  S
C666        C667   1.410       .  A
C666        H671   1.077   1_565  S
C667        C668   1.390       .  A
C668       Br669   1.924       .  S
C673        C674   1.380       .  A
C673        C678   1.369       .  A
C673        H680   1.085       .  S
C674        C675   1.413       .  A
C675        C676   1.396       .  A
C675       Br682   1.913       .  S
C676        C677   1.402       .  A
C676        H681   1.081       .  S
C677        C678   1.402       .  A
C678       Br679   1.905       .  S
C683        C684   1.403       .  A
C683        C688   1.396       .  A
C683        H690   1.076       .  S
C684        C685   1.390   1_565  A
C685        C686   1.392       .  A
C685       Br692   1.879       .  S
C686        C687   1.408   1_545  A
C686        H691   1.083       .  S
C687        C688   1.414       .  A
C688       Br689   1.919   1_556  S
C693        C694   1.395       .  A
C693        C698   1.396       .  A
C693        H700   1.079       .  S
C694        C695   1.417       .  A
C695        C696   1.396       .  A
C695       Br702   1.916       .  S
C696        C697   1.394       .  A
C696        H701   1.082       .  S
C697        C698   1.414       .  A
C698       Br699   1.932       .  S
C703        C704   1.418       .  A
C703        C708   1.397       .  A
C703        H710   1.065       .  S
C704        C705   1.397       .  A
C705        C706   1.397       .  A
C705       Br712   1.917       .  S
C706        C707   1.407       .  A
C706        H711   1.073       .  S
C707        C708   1.390       .  A
C708       Br709   1.918       .  S
C713        C714   1.393   1_565  A
C713        C718   1.389   1_565  A
C713        H720   1.079       .  S
C714        C715   1.434       .  A
C715        C716   1.396       .  A
C715       Br722   1.932       .  S
C716        C717   1.399       .  A
C716        H721   1.083       .  S
C717        C718   1.417       .  A
C718       Br719   1.909   1_545  S
C723        C724   1.395   1_565  A
C723        C728   1.384       .  A
C723        H730   1.084       .  S
C724        C725   1.386       .  A
C725        C726   1.381       .  A
C725       Br732   1.917       .  S
C726        C727   1.406       .  A
C726        H731   1.067       .  S
C727        C728   1.411   1_545  A
C728       Br729   1.903       .  S
C733        C734   1.411       .  A
C733        C738   1.392       .  A
C733        H740   1.076       .  S
C734        C735   1.394       .  A
C735        C736   1.399       .  A
C735       Br742   1.902   1_545  S
C736        C737   1.409       .  A
C736        H741   1.078   1_545  S
C737        C738   1.417       .  A
C738       Br739   1.929       .  S
C743        C744   1.409       .  A
C743        C748   1.379       .  A
C743        H750   1.044       .  S
C744        C745   1.411       .  A
C745        C746   1.401       .  A
C745       Br752   1.920   1_545  S
C746        C747   1.403       .  A
C746        H751   1.070   1_545  S
C747        C748   1.383       .  A
C748       Br749   1.921       .  S
C753        C754   1.416   1_455  A
C753        C758   1.398       .  A
C753        H760   1.074       .  S
C754        C755   1.398       .  A
C755        C756   1.404       .  A
C755       Br762   1.917       .  S
C756        C757   1.414       .  A
C756        H761   1.058       .  S
C757        C758   1.397   1_655  A
C758       Br759   1.912       .  S
C763        C764   1.402       .  A
C763        C768   1.394       .  A
C763        H770   1.079       .  S
C764        C765   1.386   1_655  A
C765        C766   1.377       .  A
C765       Br772   1.889       .  S
C766        C767   1.404   1_455  A
C766        H771   1.077       .  S
C767        C768   1.414       .  A
C768       Br769   1.918       .  S
C773        C774   1.414       .  A
C773        C778   1.408       .  A
C773        H780   1.077       .  S
C774        C775   1.394   1_655  A
C775        C776   1.397       .  A
C775       Br782   1.876       .  S
C776        C777   1.408   1_455  A
C776        H781   1.083       .  S
C777        C778   1.412       .  A
C778       Br779   1.923       .  S
C783        C784   1.410       .  A
C783        C788   1.377       .  A
C783        H790   1.061       .  S
C784        C785   1.396       .  A
C785        C786   1.395       .  A
C785       Br792   1.914   1_655  S
C786        C787   1.401       .  A
C786        H791   1.069       .  S
C787        C788   1.381       .  A
C788       Br789   1.918       .  S
C793        C794   1.400       .  A
C793        C798   1.355       .  A
C793        H800   1.063       .  S
C794        C795   1.390       .  A
C795        C796   1.379       .  A
C795       Br802   1.908       .  S
C796        C797   1.410       .  A
C796        H801   1.076       .  S
C797        C798   1.399       .  A
C798       Br799   1.932       .  S
C803        C804   1.417       .  A
C803        C808   1.405       .  A
C803        H810   1.080       .  S
C804        C805   1.405       .  A
C805        C806   1.407       .  A
C805       Br812   1.913       .  S
C806        C807   1.425       .  A
C806        H811   1.077       .  S
C807        C808   1.413       .  A
C808       Br809   1.918       .  S
C813        C814   1.397       .  A
C813        C818   1.387       .  A
C813        H820   1.083       .  S
C814        C815   1.401   1_545  A
C815        C816   1.393       .  A
C815       Br822   1.913       .  S
C816        C817   1.405   1_565  A
C816        H821   1.082       .  S
C817        C818   1.421       .  A
C818       Br819   1.924       .  S
C823        C824   1.410       .  A
C823        C828   1.396       .  A
C823        H830   1.077       .  S
C824        C825   1.396       .  A
C825        C826   1.396       .  A
C825       Br832   1.910   1_455  S
C826        C827   1.408       .  A
C826        H831   1.084   1_455  S
C827        C828   1.395       .  A
C828       Br829   1.917       .  S
C833        C834   1.390       .  A
C833        C838   1.389   1_565  A
C833        H840   1.069       .  S
C834        C835   1.399       .  A
C835        C836   1.405       .  A
C835       Br842   1.917       .  S
C836        C837   1.426       .  A
C836        H841   1.077       .  S
C837        C838   1.403   1_565  A
C838       Br839   1.911       .  S
C843        C844   1.398       .  A
C843        C848   1.381       .  A
C843        H850   1.084   1_455  S
C844        C845   1.408       .  A
C845        C846   1.392       .  A
C845       Br852   1.922       .  S
C846        C847   1.401       .  A
C846        H851   1.078       .  S
C847        C848   1.390       .  A
C848       Br849   1.890   1_455  S
C853        C854   1.394       .  A
C853        C858   1.398       .  A
C853        H860   1.083       .  S
C854        C855   1.384       .  A
C855        C856   1.361       .  A
C855       Br862   1.942       .  S
C856        C857   1.398       .  A
C856        H861   1.061       .  S
C857        C858   1.418       .  A
C858       Br859   1.903       .  S
C863        C864   1.421       .  A
C863        C868   1.390       .  A
C863        H870   1.076       .  S
C864        C865   1.416       .  A
C865        C866   1.413       .  A
C865       Br872   1.914       .  S
C866        C867   1.414       .  A
C866        H871   1.083       .  S
C867        C868   1.407       .  A
C868       Br869   1.927       .  S
C873        C874   1.419   1_455  A
C873        C878   1.398       .  A
C873        H880   1.080       .  S
C874        C875   1.415       .  A
C875        C876   1.381       .  A
C875       Br882   1.921       .  S
C876        C877   1.393       .  A
C876        H881   1.085       .  S
C877        C878   1.398   1_655  A
C878       Br879   1.925       .  S
C883        C884   1.398   1_655  A
C883        C888   1.383       .  A
C883        H890   1.080       .  S
C884        C885   1.427       .  A
C885        C886   1.371       .  A
C885       Br892   1.869       .  S
C886        C887   1.363       .  A
C886        H891   1.087       .  S
C887        C888   1.398   1_455  A
C888       Br889   1.904       .  S
