geometry optimzed in LAMMPS
_audit_creation_date              2020-11-30 
_audit_creation_method            'lammps2cif' 
_symmetry_space_group_name_H-M    'P1' 
_symmetry_Int_Tables_number       1 
_symmetry_cell_setting            triclinic 
loop_ 
_symmetry_equiv_pos_as_xyz 
  x,y,z 
_cell_length_a                    38.5934672 
_cell_length_b                    38.610866266327044 
_cell_length_c                    39.12216296667038 
_cell_angle_alpha                 90.07103234013545 
_cell_angle_beta                  90.02111074621797 
_cell_angle_gamma                 89.92355493591616 
loop_ 
_atom_site_label 
_atom_site_type_symbol 
_atom_site_fract_x 
_atom_site_fract_y 
_atom_site_fract_z 
_atom_site_charge 
O1          O  0.93570400  0.94791773  0.99982721    -0.75000
C2          C  0.94822901  0.02927707  0.92474846     0.86000
O3          O  0.05467334  0.93839346  0.96765415    -0.76200
O4          O  0.04803184  0.06601680  0.96709611    -0.77600
O5          O  0.97105730  0.04786626  0.06425695    -0.77400
O6          O  0.94395045  0.96580891  0.05346040    -0.76100
Zn7        Zn  0.97257937  0.97028383  0.97105840     1.55700
O8          O  0.98157046  0.08216108  0.01950230    -0.77500
Cd9        Cd  0.98567534  0.99900154  0.04778987     1.59700
Cd10       Cd  0.05074581  0.98305790  0.99687620     1.59600
O11         O  0.02515190  0.98313916  0.07997554    -0.77500
O12         O  0.00171410  0.00003628  0.99902747    -1.88000
Cd13       Cd  0.99929370  0.04886250  0.98168288     1.59900
O14         O  0.06982885  0.97263774  0.04518218    -0.77400
O15         O  0.96591755  0.05236994  0.94012645    -0.76100
C16         C  0.03185900  0.92189792  0.95069881     0.86500
C17         C  0.92755958  0.94802584  0.03132845     0.86100
O18         O  0.94872925  0.99759450  0.93374759    -0.75000
C19         C  0.97164059  0.07757941  0.05021071     0.86900
O20         O  0.00033059  0.93154031  0.94952074    -0.75100
C21         C  0.05649427  0.97423003  0.07487971     0.87100
C22         C  0.07776363  0.05163988  0.96681933     0.87400
O23         O  0.08267321  0.02055071  0.97646138    -0.77500
C24         C  0.05544196  0.33423878  0.10625990     0.83700
N25         N  0.03319417  0.30705460  0.10456977    -0.74600
C26         C  0.04153927  0.27645897  0.11966010     0.86100
N27         N  0.07205779  0.27329375  0.13653288    -0.74600
C28         C  0.09398037  0.30059609  0.13881891     0.86200
N29         N  0.08577914  0.33108117  0.12357807    -0.76300
C30         C  0.90812597  0.19532198  0.14064025     0.83700
N31         N  0.91593183  0.16563201  0.12366404    -0.74600
C32         C  0.94576945  0.16340291  0.10538958     0.86100
N33         N  0.96786792  0.19070862  0.10438856    -0.74600
C34         C  0.95996454  0.22052055  0.12118789     0.86200
N35         N  0.92995263  0.22278088  0.13908491    -0.76300
C36         C  0.84346041  0.10865200  0.45013988     0.83700
N37         N  0.83536272  0.12306113  0.41950067    -0.74600
C38         C  0.80480012  0.14012465  0.41558150     0.86100
N39         N  0.78232566  0.14249742  0.44219062    -0.74600
C40         C  0.79051330  0.12824764  0.47290991     0.86200
N41         N  0.82119694  0.11156130  0.47679553    -0.76300
C42         C  0.69551975  0.14638030  0.58483622     0.83700
N43         N  0.66447413  0.13011573  0.58194092    -0.74600
C44         C  0.65544111  0.11495385  0.55191331     0.86100
N45         N  0.67732400  0.11619479  0.52483001    -0.74600
C46         C  0.70852586  0.13204020  0.52771831     0.86200
N47         N  0.71763130  0.14708132  0.55784793    -0.76300
O48         O  0.68120388  0.24408948  0.30403785    -0.75000
C49         C  0.69462758  0.16859010  0.22431809     0.86000
O50         O  0.80172853  0.20737449  0.31117790    -0.76200
O51         O  0.79284197  0.21238223  0.18643987    -0.77600
O52         O  0.72108087  0.31185333  0.20742513    -0.77400
O53         O  0.68963118  0.29830709  0.28622217    -0.76100
Zn54       Zn  0.71894305  0.21521441  0.28267202     1.55700
O55         O  0.72694399  0.26594264  0.17309070    -0.77500
Cd56       Cd  0.73326248  0.29321862  0.25569944     1.59700
Cd57       Cd  0.79763477  0.23990822  0.26919375     1.59600
O58         O  0.77252779  0.32430969  0.27505296    -0.77500
O59         O  0.74830826  0.24350967  0.25344334    -1.88000
Cd60       Cd  0.74466589  0.22686271  0.20496710     1.59900
O61         O  0.81688372  0.28802476  0.28329199    -0.77400
O62         O  0.71151369  0.18476065  0.20139259    -0.76100
C63         C  0.77864324  0.19150125  0.32831749     0.86500
C64         C  0.67263605  0.27590617  0.30318607     0.86100
O65         O  0.69555694  0.17732025  0.25567460    -0.75000
C66         C  0.71973626  0.29776248  0.17800490     0.86900
O67         O  0.74665189  0.19270469  0.32046758    -0.75100
C68         C  0.80369596  0.31826883  0.28403277     0.87100
C69         C  0.82308000  0.21229715  0.19946838     0.87400
O70         O  0.82896466  0.22147009  0.23021010    -0.77500
C71         C  0.80121500  0.64206895  0.59016543     0.83700
N72         N  0.77397023  0.63917245  0.56844224    -0.74600
C73         C  0.77773550  0.62289564  0.53791753     0.86100
N74         N  0.80896643  0.60900886  0.52934013    -0.74600
C75         C  0.83620124  0.61133394  0.55126002     0.86200
N76         N  0.83234071  0.62799118  0.58166745    -0.76300
C77         C  0.66381329  0.60751748  0.44339144     0.83700
N78         N  0.66686000  0.62493347  0.41339387    -0.74600
C79         C  0.69721749  0.64063968  0.40532993     0.86100
N80         N  0.72451579  0.63869795  0.42706346    -0.74600
C81         C  0.72152911  0.62169925  0.45722221     0.86200
N82         N  0.69104009  0.60613272  0.46540886    -0.76300
O83         O  0.05455546  0.50371175  0.56264333    -0.75000
C84         C  0.96986526  0.43172238  0.55062780     0.86000
O85         O  0.06134593  0.47002435  0.44492927    -0.76200
O86         O  0.93524680  0.47230247  0.45136380    -0.77600
O87         O  0.95463609  0.57260007  0.52699909    -0.77400
O88         O  0.03617076  0.55814068  0.55670377    -0.76100
Zn89       Zn  0.03063276  0.47570848  0.52604182     1.55700
O90         O  0.91953469  0.52817480  0.51522543    -0.77500
Cd91       Cd  0.00380443  0.55413850  0.51420244     1.59700
Cd92       Cd  0.01838927  0.50228513  0.44883329     1.59600
O93         O  0.02327995  0.58596474  0.47613202    -0.77500
O94         O  0.00157147  0.50497747  0.49733964    -1.88000
Cd95       Cd  0.95220573  0.48870502  0.49912385     1.59900
O96         O  0.03236970  0.55103388  0.43135478    -0.77400
O97         O  0.94721097  0.44778671  0.53304886    -0.76100
C98         C  0.07706815  0.45191654  0.46728589     0.86500
C99         C  0.05429951  0.53528706  0.57198094     0.86100
O100        O  0.00185880  0.43959577  0.54986105    -0.75000
C101        C  0.92452075  0.55913188  0.52537364     0.86900
O102        O  0.06779619  0.45147677  0.49849952    -0.75100
C103        C  0.03283396  0.58084484  0.44535675     0.87100
C104        C  0.94931690  0.47205003  0.42191107     0.87400
O105        O  0.98013111  0.48269182  0.41682344    -0.77500
C106        C  0.41078833  0.80103902  0.12950813     0.83700
N107        N  0.41868114  0.83167700  0.11451705    -0.74600
C108        C  0.44857345  0.83496609  0.09657376     0.86100
N109        N  0.47075509  0.80774599  0.09400655    -0.74600
C110        C  0.46272321  0.77696259  0.10886143     0.86200
N111        N  0.43262856  0.77369451  0.12642342    -0.76300
C112        C  0.59681489  0.69885378  0.13231892     0.83700
N113        N  0.57488156  0.72597205  0.12823277    -0.74600
C114        C  0.54493112  0.72200011  0.11057495     0.86100
N115        N  0.53712825  0.69070659  0.09661795    -0.74600
C116        C  0.55936594  0.66365589  0.10018670     0.86200
N117        N  0.58915801  0.66765839  0.11822321    -0.76300
C118        C  0.11618937  0.05239756  0.34951307     0.83700
N119        N  0.11840402  0.02594782  0.32674880    -0.74600
C120        C  0.13397187  0.03079989  0.29605340     0.86100
N121        N  0.14771544  0.06220839  0.28837400    -0.74600
C122        C  0.14598880  0.08855475  0.31129265     0.86200
N123        N  0.13006276  0.08373822  0.34185581    -0.76300
C124        C  0.11513528  0.95732537  0.15962351     0.83700
N125        N  0.11689078  0.98356470  0.18263346    -0.74600
C126        C  0.13396440  0.97911982  0.21263288     0.86100
N127        N  0.14970385  0.94835181  0.21934989    -0.74600
C128        C  0.14844479  0.92227776  0.19606617     0.86200
N129        N  0.13100223  0.92669967  0.16627216    -0.76300
O130        O  0.30477666  0.68838734  0.24252224    -0.75000
C131        C  0.21880515  0.70516505  0.17102283     0.86000
O132        O  0.31279643  0.80727730  0.20784110    -0.76200
O133        O  0.18617889  0.80441127  0.21905832    -0.77600
O134        O  0.20988486  0.72423991  0.31199742    -0.77400
O135        O  0.29124086  0.69819601  0.29709205    -0.76100
Zn136      Zn  0.28051777  0.72555251  0.21532300     1.55700
O137        O  0.17284646  0.73527874  0.26944555    -0.77500
Cd138      Cd  0.25744793  0.73956469  0.29309908     1.59700
Cd139      Cd  0.27156786  0.80435704  0.24156513     1.59600
O140        O  0.27504515  0.77888579  0.32429196    -0.77500
O141        O  0.25347923  0.75578745  0.24471111    -1.88000
Cd142      Cd  0.20358765  0.75480908  0.23041639     1.59900
O143        O  0.28680856  0.82277668  0.28901344    -0.77400
O144        O  0.19717981  0.72388301  0.18733373    -0.76100
C145        C  0.32700266  0.78382422  0.18973288     0.86500
C146        C  0.30715147  0.68107232  0.27414401     0.86100
O147        O  0.25055885  0.70312019  0.17950644    -0.75000
C148        C  0.17940701  0.72462668  0.29958710     0.86900
O149        O  0.31712275  0.75243718  0.19038884    -0.75100
C150        C  0.28549119  0.80961599  0.31880290     0.87100
C151        C  0.20126523  0.83372178  0.21790749     0.87400
O152        O  0.23324377  0.83758873  0.22483035    -0.77500
O153        O  0.30783786  0.31326725  0.25281861    -0.75000
C154        C  0.22174002  0.30504520  0.32324688     0.86000
O155        O  0.31081298  0.19464511  0.28497647    -0.76200
O156        O  0.18430539  0.20564370  0.28234790    -0.77600
O157        O  0.20922157  0.28148523  0.18430751    -0.77400
O158        O  0.29164456  0.30587545  0.19857864    -0.76100
Zn159      Zn  0.28215071  0.27769798  0.28053466     1.55700
O160        O  0.17248485  0.27097762  0.22721208    -0.77500
Cd161      Cd  0.25678593  0.26543744  0.20282215     1.59700
Cd162      Cd  0.26775126  0.19985200  0.25399490     1.59600
O163        O  0.27307170  0.22558987  0.17129287    -0.77500
O164        O  0.25280717  0.24942809  0.25136691    -1.88000
Cd165      Cd  0.20340706  0.25332108  0.26672795     1.59900
O166        O  0.27979224  0.18031573  0.20615528    -0.77400
O167        O  0.19886710  0.28788607  0.30704252    -0.76100
C168        C  0.32694471  0.21675936  0.30309736     0.86500
C169        C  0.30934178  0.32139649  0.22135819     0.86100
O170        O  0.25384522  0.30319257  0.31598686    -0.75000
C171        C  0.17881864  0.28110280  0.19688920     0.86900
O172        O  0.31823898  0.24853678  0.30423168    -0.75100
C173        C  0.28050098  0.19391512  0.17655059     0.87100
C174        C  0.19773686  0.17550533  0.28329691     0.87400
O175        O  0.22868241  0.16942854  0.27377996    -0.77500
C176        C  0.54900547  0.84239760  0.62109588     0.83700
N177        N  0.52194107  0.82010885  0.62293383    -0.74600
C178        C  0.52537752  0.78951778  0.63958857     0.86100
N179        N  0.55598584  0.78144556  0.65481021    -0.74600
C180        C  0.58290807  0.80398539  0.65353397     0.86200
N181        N  0.57952054  0.83440851  0.63646903    -0.76300
C182        C  0.41474764  0.69009417  0.64929681     0.83700
N183        N  0.41836986  0.66125329  0.62965719    -0.74600
C184        C  0.44884500  0.65507568  0.61335604     0.86100
N185        N  0.47560768  0.67749701  0.61692054    -0.74600
C186        C  0.47192880  0.70651260  0.63612130     0.86200
N187        N  0.44138745  0.71283405  0.65223037    -0.76300
O188        O  0.44339808  0.99849255  0.56934244    -0.75000
C189        C  0.42432098  0.94202588  0.47618747     0.86000
O190        O  0.55233024  0.94267611  0.54500281    -0.76200
O191        O  0.52341150  0.97214912  0.42769244    -0.77600
O192        O  0.47505978  0.07611983  0.47785217    -0.77400
O193        O  0.45805014  0.05327716  0.55873346    -0.76100
Zn194      Zn  0.46868488  0.96908839  0.53493064     1.55700
O195        O  0.46900423  0.03781399  0.43543704    -0.77500
Cd196      Cd  0.49267978  0.04733936  0.51877267     1.59700
Cd197      Cd  0.54757252  0.98318124  0.51047485     1.59600
O198        O  0.53982242  0.06838043  0.53312218    -0.77500
O199        O  0.49779810  0.99737105  0.50567850    -1.88000
Cd200      Cd  0.48316933  0.99112411  0.45699956     1.59900
O201        O  0.57717330  0.02446300  0.52745849    -0.77400
O202        O  0.44122670  0.95812702  0.45327702    -0.76100
C203        C  0.52941628  0.92658720  0.56218682     0.86500
C204        C  0.44119350  0.03075047  0.57560733     0.86100
O205        O  0.43221224  0.94373478  0.50771927    -0.75000
C206        C  0.46746938  0.06854107  0.44708802     0.86900
O207        O  0.49734455  0.93406955  0.56046445    -0.75100
C208        C  0.57032373  0.05589785  0.53472307     0.87100
C209        C  0.55501575  0.96516261  0.43393408     0.87400
O210        O  0.56813858  0.96780391  0.46371317    -0.77500
C211        C  0.33466610  0.39786056  0.55333324     0.83700
N212        N  0.30745458  0.39986673  0.53143769    -0.74600
C213        C  0.27657292  0.38526156  0.53973738     0.86100
N214        N  0.27312182  0.36850415  0.56998087    -0.74600
C215        C  0.30040200  0.36594119  0.59170699     0.86200
N216        N  0.33122552  0.38071612  0.58346544    -0.76300
C217        C  0.19973324  0.36518851  0.40578839     0.83700
N218        N  0.16886586  0.38054982  0.41290894    -0.74600
C219        C  0.16474700  0.39831953  0.44266179     0.86100
N220        N  0.19134787  0.40034935  0.46532898    -0.74600
C221        C  0.22227619  0.38515433  0.45806723     0.86200
N222        N  0.22638390  0.36783662  0.42819154    -0.76300
C223        C  0.58356626  0.30203059  0.35261368     0.83700
N224        N  0.55714176  0.27888762  0.35126656    -0.74600
C225        C  0.52609666  0.28667719  0.36576944     0.86100
N226        N  0.52171531  0.31757320  0.38169864    -0.74600
C227        C  0.54824777  0.34046045  0.38355357     0.86200
N228        N  0.57919471  0.33277513  0.36892824    -0.76300
C229        C  0.44897966  0.15122499  0.38608227     0.83700
N230        N  0.41822647  0.15916722  0.37120265    -0.74600
C231        C  0.41473045  0.18929815  0.35372133     0.86100
N232        N  0.44177673  0.21158906  0.35151647    -0.74600
C233        C  0.47261923  0.20357482  0.36628733     0.86200
N234        N  0.47616848  0.17326687  0.38339978    -0.76300
C235        C  0.64316900  0.57914186  0.80234096     0.83700
N236        N  0.64366106  0.55286670  0.77918692    -0.74600
C237        C  0.62817110  0.52215790  0.78662037     0.86100
N238        N  0.61217185  0.51795143  0.81717837    -0.74600
C239        C  0.61108006  0.54430848  0.84006526     0.86200
N240        N  0.62672117  0.57489790  0.83275128    -0.76300
C241        C  0.60960972  0.44430543  0.65200217     0.83700
N242        N  0.61071689  0.47128663  0.67422188    -0.74600
C243        C  0.62741034  0.46808921  0.70456183     0.86100
N244        N  0.64349344  0.43779290  0.71242799    -0.74600
C245        C  0.64297519  0.41090691  0.69003931     0.86200
N246        N  0.62588663  0.41408822  0.65980360    -0.76300
O247        O  0.55279096  0.49831022  0.56018911    -0.75000
C248        C  0.57619757  0.55380010  0.46754899     0.86000
O249        O  0.44684712  0.55987459  0.53097644    -0.76200
O250        O  0.47898330  0.52442019  0.41526509    -0.77600
O251        O  0.51739849  0.42018531  0.47035275    -0.77400
O252        O  0.53441082  0.44439070  0.55095364    -0.76100
Zn253      Zn  0.52920383  0.52854933  0.52520581     1.55700
O254        O  0.53036650  0.45676777  0.42800820    -0.77500
Cd255      Cd  0.50079877  0.45142061  0.51008246     1.59700
Cd256      Cd  0.45071399  0.51853904  0.49726116     1.59600
O257        O  0.45191969  0.43457661  0.52472756    -0.77500
O258        O  0.49973245  0.50116913  0.49525298    -1.88000
Cd259      Cd  0.51713390  0.50499303  0.44713020     1.59900
O260        O  0.41771230  0.48023323  0.51497651    -0.77400
O261        O  0.56024984  0.53696593  0.44438026    -0.76100
C262        C  0.46943628  0.57390638  0.55025330     0.86500
C263        C  0.55267517  0.46619493  0.56743065     0.86100
O264        O  0.56685338  0.55308409  0.49873485    -0.75000
C265        C  0.52822397  0.42630457  0.44022147     0.86900
O266        O  0.50100642  0.56432311  0.55050574    -0.75100
C267        C  0.42226704  0.44910708  0.52475310     0.87100
C268        C  0.44771051  0.53386975  0.41987546     0.87400
O269        O  0.43326454  0.53353254  0.44916624    -0.77500
C270        C  0.29893820  0.13622714  0.09147182     0.83700
N271        N  0.27216693  0.13385866  0.06912834    -0.74600
C272        C  0.27636538  0.11733203  0.03878915     0.86100
N273        N  0.30747549  0.10274826  0.03104463    -0.74600
C274        C  0.33413741  0.10459824  0.05364117     0.86200
N275        N  0.32992610  0.12150572  0.08379973    -0.76300
C276        C  0.16507754  0.10464520  0.94166244     0.83700
N277        N  0.16844695  0.12318753  0.91242078    -0.74600
C278        C  0.19887568  0.13915191  0.90528190     0.86100
N279        N  0.22596018  0.13638662  0.92723209    -0.74600
C280        C  0.22256583  0.11822301  0.95670417     0.86200
N281        N  0.19198494  0.10241685  0.96392762    -0.76300
C282        C  0.10896699  0.45255306  0.84538977     0.83700
N283        N  0.11099233  0.47948546  0.82323183    -0.74600
C284        C  0.12709574  0.47553470  0.79264127     0.86100
N285        N  0.14166397  0.44453368  0.78448831    -0.74600
C286        C  0.14018655  0.41770132  0.80684750     0.86200
N287        N  0.12368631  0.42165578  0.83726873    -0.76300
C288        C  0.11064440  0.55387130  0.65815251     0.83700
N289        N  0.11150751  0.52688699  0.68034293    -0.74600
C290        C  0.12788739  0.53004663  0.71089152     0.86100
N291        N  0.14391649  0.56028798  0.71898528    -0.74600
C292        C  0.14365842  0.58715457  0.69662553     0.86200
N293        N  0.12686584  0.58401922  0.66622324    -0.76300
O294        O  0.29976638  0.18782901  0.75007450    -0.75000
C295        C  0.32053021  0.28469978  0.80428613     0.86000
O296        O  0.19379004  0.21808589  0.80765220    -0.76200
O297        O  0.22409669  0.33565140  0.77046805    -0.77600
O298        O  0.26932439  0.27764888  0.67034160    -0.77400
O299        O  0.28113093  0.19510953  0.69662025    -0.76100
Zn300      Zn  0.27639894  0.22495318  0.77798110     1.55700
O301        O  0.27908137  0.32192565  0.70593632    -0.77500
Cd302      Cd  0.24976517  0.23864164  0.70120601     1.59700
Cd303      Cd  0.19798254  0.25178358  0.76652530     1.59600
O304        O  0.20095047  0.22565798  0.68307823    -0.77500
O305        O  0.24714119  0.25446400  0.74998464    -1.88000
Cd306      Cd  0.26348796  0.30362198  0.75330453     1.59900
O307        O  0.16602972  0.23381889  0.72796213    -0.77400
O308        O  0.30453378  0.30783453  0.78728858    -0.76100
C309        C  0.21683146  0.19995539  0.82259565     0.86500
C310        C  0.29882547  0.17872270  0.71884178     0.86100
O311        O  0.31262554  0.25278153  0.80256985    -0.75000
C312        C  0.27930594  0.30854845  0.67615995     0.86900
O313        O  0.24847564  0.20046626  0.81368238    -0.75100
C314        C  0.17111390  0.22507917  0.69697323     0.87100
C315        C  0.19313090  0.33034457  0.78035993     0.87400
O316        O  0.17960238  0.30026666  0.78097986    -0.77500
O317        O  0.55186353  0.00171363  0.06346945    -0.75000
C318        C  0.47224999  0.92462558  0.04715009     0.86000
O319        O  0.55847841  0.96700079  0.94375194    -0.76200
O320        O  0.43294133  0.97194011  0.95255639    -0.77600
O321        O  0.45220198  0.06862124  0.02704656    -0.77400
O322        O  0.53316823  0.05601273  0.05691856    -0.76100
Zn323      Zn  0.53007571  0.97373279  0.02584006     1.55700
O324        O  0.41877052  0.02194717  0.01986992    -0.77500
Cd325      Cd  0.50161366  0.05163906  0.01396010     1.59700
Cd326      Cd  0.51642074  0.00025277  0.94876248     1.59600
O327        O  0.52025437  0.08409352  0.97582111    -0.77500
O328        O  0.50030057  0.00238500  0.99749834    -1.88000
Cd329      Cd  0.45166613  0.98457445  0.00041066     1.59900
O330        O  0.53064010  0.04900889  0.93147075    -0.77400
O331        O  0.44881590  0.94066031  0.03060620    -0.76100
C332        C  0.57540387  0.95030659  0.96632568     0.86500
C333        C  0.55084706  0.03325564  0.07283213     0.86100
O334        O  0.50359828  0.93467501  0.04761383    -0.75000
C335        C  0.42285627  0.05356631  0.02815670     0.86900
O336        O  0.56769493  0.95152227  0.99790106    -0.75100
C337        C  0.53021438  0.07896403  0.94515857     0.87100
C338        C  0.44605510  0.97293724  0.92274971     0.87400
O339        O  0.47703462  0.98273977  0.91716101    -0.77500
C340        C  0.86220910  0.40352227  0.30401374     0.83700
N341        N  0.86370539  0.42587017  0.27732663    -0.74600
C342        C  0.88060699  0.45647592  0.28049892     0.86100
N343        N  0.89652218  0.46448684  0.31045346    -0.74600
C344        C  0.89565652  0.44197372  0.33705437     0.86200
N345        N  0.87830382  0.41148642  0.33393678    -0.76300
C346        C  0.86494920  0.59326892  0.20411319     0.83700
N347        N  0.86614345  0.57075659  0.23069178    -0.74600
C348        C  0.88125369  0.53923931  0.22683927     0.86100
N349        N  0.89559270  0.53047352  0.19630195    -0.74600
C350        C  0.89488147  0.55315292  0.16983345     0.86200
N351        N  0.87939923  0.58451641  0.17367239    -0.76300
C352        C  0.60422061  0.05088140  0.16073256     0.83700
N353        N  0.60477483  0.02366738  0.18265960    -0.74600
C354        C  0.62138679  0.02632172  0.21313835     0.86100
N355        N  0.63799837  0.05622010  0.22134774    -0.74600
C356        C  0.63798111  0.08325670  0.19919977     0.86200
N357        N  0.62099499  0.08063425  0.16891220    -0.76300
C358        C  0.60991646  0.94650661  0.34747723     0.83700
N359        N  0.62494827  0.91612714  0.33813496    -0.74600
C360        C  0.63958525  0.91295666  0.30671497     0.86100
N361        N  0.63891012  0.94002566  0.28461526    -0.74600
C362        C  0.62399709  0.97049678  0.29396986     0.86200
N363        N  0.60976965  0.97369688  0.32552939    -0.76300
C364        C  0.05941015  0.66768195  0.39261903     0.83700
N365        N  0.03662857  0.69437957  0.39509661    -0.74600
C366        C  0.04370383  0.72517079  0.37988685     0.86100
N367        N  0.07355250  0.72905582  0.36207043    -0.74600
C368        C  0.09608618  0.70227470  0.35899689     0.86200
N369        N  0.08913607  0.67152792  0.37439064    -0.76300
C370        C  0.90792902  0.80277396  0.36343865     0.83700
N371        N  0.93008776  0.77556373  0.36561275    -0.74600
C372        C  0.96071568  0.77898685  0.38227820     0.86100
N373        N  0.96892874  0.80970566  0.39716861    -0.74600
C374        C  0.94652771  0.83676870  0.39551248     0.86200
N375        N  0.91607326  0.83339117  0.37847787    -0.76300
C376        C  0.84246011  0.89021353  0.05233483     0.83700
N377        N  0.82073111  0.88595259  0.02542714    -0.74600
C378        C  0.79067439  0.86822358  0.02922217     0.86100
N379        N  0.78260419  0.85431610  0.06013732    -0.74600
C380        C  0.80466604  0.85804804  0.08697697     0.86200
N381        N  0.83453947  0.87613558  0.08310326    -0.76300
C382        C  0.69497118  0.85150882  0.91692500     0.83700
N383        N  0.66595079  0.87134410  0.91907094    -0.74600
C384        C  0.65860070  0.88848587  0.94850877     0.86100
N385        N  0.68003087  0.88554286  0.97581151    -0.74600
C386        C  0.70926470  0.86615301  0.97369641     0.86200
N387        N  0.71680701  0.84920349  0.94410657    -0.76300
O388        O  0.68547308  0.75316186  0.19497023    -0.75000
C389        C  0.69445210  0.82738871  0.27858619     0.86000
O390        O  0.80354437  0.79089224  0.19152110    -0.76200
O391        O  0.79294323  0.78314198  0.31729524    -0.77600
O392        O  0.71911201  0.68533414  0.29161011    -0.77400
O393        O  0.69591894  0.69840120  0.20992041    -0.76100
Zn394      Zn  0.72051650  0.78253999  0.21963132     1.55700
O395        O  0.72603361  0.72990545  0.32740889    -0.77500
Cd396      Cd  0.73563941  0.70432188  0.24491893     1.59700
Cd397      Cd  0.79952174  0.75856525  0.23373969     1.59600
O398        O  0.77674216  0.67371183  0.22964487    -0.77500
O399        O  0.74997176  0.75405811  0.24854287    -1.88000
Cd400      Cd  0.74525848  0.76941995  0.29722750     1.59900
O401        O  0.82038239  0.71063270  0.22107023    -0.77400
O402        O  0.71208624  0.81142136  0.30112221    -0.76100
C403        C  0.78037094  0.80742450  0.17501290     0.86500
C404        C  0.67905993  0.72091572  0.19296442     0.86100
O405        O  0.69513335  0.81896312  0.24712311    -0.75000
C406        C  0.71742197  0.69868439  0.32132467     0.86900
O407        O  0.74852593  0.80661485  0.18333260    -0.75100
C408        C  0.80797937  0.68008581  0.22140509     0.87100
C409        C  0.82321428  0.78489475  0.30450213     0.87400
O410        O  0.82958964  0.77755954  0.27338056    -0.77500
C411        C  0.39662482  0.55883476  0.33219078     0.83700
N412        N  0.37928337  0.58904648  0.32722695    -0.74600
C413        C  0.36514378  0.59606791  0.29620915     0.86100
N414        N  0.36854557  0.57308541  0.27020557    -0.74600
C415        C  0.38550953  0.54273523  0.27513212     0.86200
N416        N  0.39950119  0.53560294  0.30624054    -0.76300
C417        C  0.36895742  0.40541822  0.20118232     0.83700
N418        N  0.38404815  0.41281846  0.17072737    -0.74600
C419        C  0.40115308  0.44323191  0.16656988     0.86100
N420        N  0.40276726  0.46634580  0.19272021    -0.74600
C421        C  0.38780700  0.45883916  0.22328085     0.86200
N422        N  0.37110902  0.42826726  0.22742877    -0.76300
O423        O  0.55542712  0.49264555  0.93561079    -0.75000
C424        C  0.57960537  0.44425501  0.03199880     0.86000
O425        O  0.44878423  0.43680737  0.96955601    -0.76200
O426        O  0.48371620  0.47769074  0.08286411    -0.77600
O427        O  0.52397418  0.57810169  0.02025223    -0.77400
O428        O  0.53804764  0.54745691  0.94136454    -0.76100
Zn429      Zn  0.53199489  0.46565630  0.97323339     1.55700
O430        O  0.53497616  0.54486040  0.06569341    -0.77500
Cd431      Cd  0.50561707  0.54445285  0.98339815     1.59700
Cd432      Cd  0.45408427  0.47992258  0.00091246     1.59600
O433        O  0.45691713  0.56229769  0.96971140    -0.77500
O434        O  0.50354965  0.49595826  0.00152385    -1.88000
Cd435      Cd  0.52145977  0.49541424  0.04968296     1.59900
O436        O  0.42139912  0.51871388  0.98300572    -0.77400
O437        O  0.56445623  0.46329198  0.05402703    -0.76100
C438        C  0.47102046  0.41999981  0.95207207     0.86500
C439        C  0.55561040  0.52417125  0.92614221     0.86100
O440        O  0.56963968  0.44261344  0.00102655    -0.75000
C441        C  0.53406540  0.57425908  0.05098416     0.86900
O442        O  0.50293368  0.42825357  0.95137512    -0.75100
C443        C  0.42672756  0.54923957  0.97184343     0.87100
C444        C  0.45247462  0.46789640  0.07894342     0.87400
O445        O  0.43766718  0.46699888  0.04983696    -0.77500
O446        O  0.93598770  0.05020378  0.50391035    -0.75000
C447        C  0.94565525  0.96418667  0.57553047     0.86000
O448        O  0.05384765  0.05428756  0.54458320    -0.76200
O449        O  0.04765533  0.92840831  0.53322034    -0.77600
O450        O  0.97406035  0.95298725  0.43621207    -0.77400
O451        O  0.94612821  0.03432266  0.45001962    -0.76100
Zn452      Zn  0.97133580  0.02534850  0.53294128     1.55700
O453        O  0.98129907  0.91692938  0.48029839    -0.77500
Cd454      Cd  0.98785770  0.00094059  0.45577292     1.59700
Cd455      Cd  0.05097747  0.01359416  0.51009449     1.59600
O456        O  0.02830353  0.01956791  0.42648106    -0.77500
O457        O  0.00197862  0.99712526  0.50498705    -1.88000
Cd458      Cd  0.99908624  0.94752166  0.51993899     1.59900
O459        O  0.07092978  0.03005006  0.46372369    -0.77400
O460        O  0.96493078  0.94196900  0.56069350    -0.76100
C461        C  0.03012144  0.06996438  0.56111813     0.86500
C462        C  0.92900983  0.05143848  0.47214325     0.86100
O463        O  0.94557470  0.99603604  0.56718148    -0.75000
C464        C  0.97304625  0.92284660  0.44934810     0.86900
O465        O  0.99834502  0.06149676  0.55889090    -0.75100
C466        C  0.05881917  0.02986691  0.43345549     0.87100
C467        C  0.07767551  0.94210558  0.53380666     0.87400
O468        O  0.08287054  0.97375860  0.52633549    -0.77500
C469        C  0.30287818  0.86307974  0.40628907     0.83700
N470        N  0.33355910  0.87689262  0.41626155    -0.74600
C471        C  0.33663985  0.89121190  0.44780054     0.86100
N472        N  0.30914404  0.89143673  0.46942874    -0.74600
C473        C  0.27832658  0.87771229  0.45943861     0.86200
N474        N  0.27526960  0.86372627  0.42775045    -0.76300
C475        C  0.16508729  0.88701705  0.55556782     0.83700
N476        N  0.19167084  0.88867927  0.53283959    -0.74600
C477        C  0.22265902  0.87367804  0.54036706     0.86100
N478        N  0.22682827  0.85707346  0.57061784    -0.74600
C479        C  0.20018568  0.85489610  0.59307269     0.86200
N480        N  0.16933508  0.87003574  0.58566193    -0.76300
C481        C  0.40477462  0.30211834  0.86376911     0.83700
N482        N  0.41291694  0.33180673  0.88056354    -0.74600
C483        C  0.44333627  0.33412044  0.89788812     0.86100
N484        N  0.46572669  0.30695767  0.89797207    -0.74600
C485        C  0.45745769  0.27716491  0.88134140     0.86200
N486        N  0.42685350  0.27478482  0.86449688    -0.76300
C487        C  0.55542049  0.16510119  0.89032069     0.83700
N488        N  0.53261450  0.19184989  0.89200855    -0.74600
C489        C  0.53980795  0.22231408  0.87618564     0.86100
N490        N  0.56987428  0.22583106  0.85859596    -0.74600
C491        C  0.59246427  0.19898214  0.85632787     0.86200
N492        N  0.58535554  0.16860477  0.87235714    -0.76300
C493        C  0.08398860  0.19726849  0.64528436     0.83700
N494        N  0.07989990  0.16577229  0.63034805    -0.74600
C495        C  0.04898567  0.15719082  0.61612079     0.86100
N496        N  0.02221397  0.17996875  0.61701699    -0.74600
C497        C  0.02634861  0.21159569  0.63156667     0.86200
N498        N  0.05733339  0.22021378  0.64567221    -0.76300
C499        C  0.94941944  0.34761488  0.60939470     0.83700
N500        N  0.97630679  0.32504338  0.61132341    -0.74600
C501        C  0.97284825  0.29486088  0.62865739     0.86100
N502        N  0.94244059  0.28752859  0.64451381    -0.74600
C503        C  0.91569092  0.31030985  0.64314345     0.86200
N504        N  0.91906651  0.34034892  0.62541068    -0.76300
C505        C  0.66693081  0.39012112  0.05654578     0.83700
N506        N  0.69363059  0.39186782  0.03401675    -0.74600
C507        C  0.72426059  0.37604257  0.04118773     0.86100
N508        N  0.72797617  0.35839216  0.07093789    -0.74600
C509        C  0.70115871  0.35606606  0.09322658     0.86200
N510        N  0.67063448  0.37206932  0.08611731    -0.76300
C511        C  0.83603237  0.39376511  0.94557998     0.83700
N512        N  0.80899757  0.39443627  0.96775919    -0.74600
C513        C  0.77856930  0.37889051  0.95944225     0.86100
N514        N  0.77539338  0.36254428  0.92889045    -0.74600
C515        C  0.80254640  0.36124248  0.90690182     0.86200
N516        N  0.83290213  0.37697467  0.91517141    -0.76300
O517        O  0.75183653  0.30420362  0.81239727    -0.75000
C518        C  0.69928213  0.32560479  0.71676093     0.86000
O519        O  0.69388290  0.19710255  0.78129665    -0.76200
O520        O  0.73383653  0.22951177  0.66659563    -0.77600
O521        O  0.83459429  0.27178530  0.72671807    -0.77400
O522        O  0.80620726  0.28538191  0.80660868    -0.76100
Zn523      Zn  0.72361580  0.28004888  0.77605292     1.55700
O524        O  0.79963832  0.28324237  0.68256338    -0.77500
Cd525      Cd  0.80222752  0.25260117  0.76452962     1.59700
Cd526      Cd  0.73637791  0.20164657  0.74902823     1.59600
O527        O  0.82006894  0.20338531  0.77790889    -0.77500
O528        O  0.75306893  0.25086845  0.74757419    -1.88000
Cd529      Cd  0.75107846  0.26803648  0.69922093     1.59900
O530        O  0.77500798  0.16886513  0.76681986    -0.77400
O531        O  0.71762409  0.30987338  0.69458956    -0.76100
C532        C  0.67812293  0.21967832  0.79929360     0.86500
C533        C  0.78346346  0.30387927  0.82164050     0.86100
O534        O  0.69917947  0.31688306  0.74813353    -0.75000
C535        C  0.82950178  0.28266107  0.69639024     0.86900
O536        O  0.68697967  0.25142684  0.79960804    -0.75100
C537        C  0.80604354  0.17350540  0.77691869     0.87100
C538        C  0.72357629  0.19853563  0.67114915     0.87400
O539        O  0.72251248  0.18443852  0.70056185    -0.77500
C540        C  0.09399229  0.79807115  0.86751584     0.83700
N541        N  0.08657175  0.82871900  0.88292228    -0.74600
C542        C  0.05688403  0.83225480  0.90123320     0.86100
N543        N  0.03447074  0.80528817  0.90373280    -0.74600
C544        C  0.04200129  0.77451687  0.88849979     0.86200
N545        N  0.07188433  0.77098273  0.87059185    -0.76300
C546        C  0.94315006  0.66339795  0.90140679     0.83700
N547        N  0.91394713  0.66686446  0.88234816    -0.74600
C548        C  0.90733163  0.69719062  0.86609033     0.86100
N549        N  0.92969860  0.72406803  0.86913943    -0.74600
C550        C  0.95911619  0.72059270  0.88779975     0.86200
N551        N  0.96587816  0.69012257  0.90387286    -0.76300
C552        C  0.88921731  0.04958582  0.84071454     0.83700
N553        N  0.88506245  0.02225087  0.81931378    -0.74600
C554        C  0.86746844  0.02597251  0.78952325     0.86100
N555        N  0.85356335  0.05728549  0.78134866    -0.74600
C556        C  0.85712802  0.08462936  0.80299080     0.86200
N557        N  0.87512303  0.08080491  0.83264463    -0.76300
C558        C  0.88482435  0.94432457  0.65795820     0.83700
N559        N  0.88216801  0.97196779  0.67921289    -0.74600
C560        C  0.86482625  0.96928661  0.70922898     0.86100
N561        N  0.84966733  0.93871891  0.71779760    -0.74600
C562        C  0.85169411  0.91110945  0.69628829     0.86200
N563        N  0.86949105  0.91385176  0.66641801    -0.76300
O564        O  0.74771615  0.69604281  0.68514700    -0.75000
C565        C  0.69629992  0.66769480  0.77997351     0.86000
O566        O  0.68704378  0.79920163  0.72243474    -0.76200
O567        O  0.72615946  0.76468520  0.83439245    -0.77600
O568        O  0.82910488  0.72637970  0.77569914    -0.77400
O569        O  0.80230536  0.71248747  0.69445127    -0.76100
Zn570      Zn  0.71905760  0.71704303  0.72311667     1.55700
O571        O  0.79315371  0.71370432  0.81871221    -0.77500
Cd572      Cd  0.79705509  0.74441889  0.73702925     1.59700
Cd573      Cd  0.73085270  0.79471798  0.75276426     1.59600
O574        O  0.81415871  0.79373940  0.72368004    -0.77500
O575        O  0.74761288  0.74550535  0.75310953    -1.88000
Cd576      Cd  0.74449807  0.72712434  0.80097954     1.59900
O577        O  0.76850755  0.82784879  0.73381970    -0.77400
O578        O  0.71278205  0.68369148  0.80337189    -0.76100
C579        C  0.67108928  0.77701415  0.70419156     0.86500
C580        C  0.77970889  0.69592641  0.67722222     0.86100
O581        O  0.69672168  0.67758796  0.74895555    -0.75000
C582        C  0.82342424  0.71558523  0.80594982     0.86900
O583        O  0.68071771  0.74553666  0.70209387    -0.75100
C584        C  0.79966069  0.82342098  0.72398582     0.87100
C585        C  0.71820799  0.79649162  0.83071772     0.87400
O586        O  0.71878379  0.81156934  0.80178005    -0.77500
O587        O  0.94567798  0.49545596  0.07264344    -0.75000
C588        C  0.92250331  0.44719921  0.97392777     0.86000
O589        O  0.05174605  0.44028600  0.03994300    -0.76200
O590        O  0.02094696  0.48020651  0.92587493    -0.77600
O591        O  0.97436861  0.58045476  0.98629265    -0.77400
O592        O  0.96217685  0.55042414  0.06626760    -0.76100
Zn593      Zn  0.96835214  0.46879549  0.03406444     1.55700
O594        O  0.96769620  0.54655511  0.94045922    -0.77500
Cd595      Cd  0.99365402  0.54777102  0.02356453     1.59700
Cd596      Cd  0.04695515  0.48362016  0.00894384     1.59600
O597        O  0.04178806  0.56716447  0.03649258    -0.77500
O598        O  0.99732641  0.49901812  0.00632744    -1.88000
Cd599      Cd  0.98155016  0.49756838  0.95751385     1.59900
O600        O  0.07824056  0.52311643  0.02737434    -0.77400
O601        O  0.93919358  0.46501146  0.95207233    -0.76100
C602        C  0.02891004  0.42256976  0.05560236     0.86500
C603        C  0.94552375  0.52700838  0.08215146     0.86100
O604        O  0.93071078  0.44660701  0.00545582    -0.75000
C605        C  0.96637224  0.57604366  0.95502793     0.86900
O606        O  0.99688953  0.43048721  0.05509103    -0.75100
C607        C  0.07214162  0.55428032  0.03628075     0.87100
C608        C  0.05227904  0.47130781  0.93114603     0.87400
O609        O  0.06578950  0.47097286  0.96084599    -0.77500
C610        C  0.38001371  0.05310307  0.65697229     0.83700
N611        N  0.37598421  0.02614031  0.67872406    -0.74600
C612        C  0.35838265  0.03031711  0.70840748     0.86100
N613        N  0.34439593  0.06171146  0.71616171    -0.74600
C614        C  0.34784953  0.08862613  0.69405810     0.86200
N615        N  0.36588210  0.08438064  0.66454650    -0.76300
C616        C  0.38569129  0.95273173  0.83995226     0.83700
N617        N  0.38026837  0.97990995  0.81870792    -0.74600
C618        C  0.36181211  0.97570027  0.78950524     0.86100
N619        N  0.34844102  0.94406921  0.78175883    -0.74600
C620        C  0.35337357  0.91692700  0.80329125     0.86200
N621        N  0.37216532  0.92122250  0.83233348    -0.76300
C622        C  0.15574043  0.61600913  0.05261669     0.83700
N623        N  0.17794214  0.61805666  0.02583555    -0.74600
C624        C  0.20773679  0.63643647  0.02863098     0.86100
N625        N  0.21505740  0.65323448  0.05833683    -0.74600
C626        C  0.19247464  0.65182940  0.08494420     0.86200
N627        N  0.16292099  0.63299474  0.08216667    -0.76300
C628        C  0.34220185  0.60937816  0.95228508     0.83700
N629        N  0.31989802  0.61323168  0.97881620    -0.74600
C630        C  0.29049736  0.63215866  0.97504993     0.86100
N631        N  0.28368745  0.64769523  0.94459366    -0.74600
C632        C  0.30628515  0.64443550  0.91815275     0.86200
N633        N  0.33549395  0.62512272  0.92195727    -0.76300
O634        O  0.25381039  0.79851406  0.68643624    -0.75000
C635        C  0.30513458  0.82593077  0.78047061     0.86000
O636        O  0.31176462  0.69341615  0.72145280    -0.76200
O637        O  0.27568543  0.72930194  0.83459946    -0.77600
O638        O  0.17206399  0.76935401  0.77720741    -0.77400
O639        O  0.19880192  0.78409307  0.69643710    -0.76100
Zn640      Zn  0.28223745  0.77647914  0.72379133     1.55700
O641        O  0.20843805  0.78049474  0.82028541    -0.77500
Cd642      Cd  0.20367440  0.75137747  0.73819336     1.59700
Cd643      Cd  0.26881116  0.69911334  0.75301636     1.59600
O644        O  0.18540994  0.70289213  0.72393342    -0.77500
O645        O  0.25318314  0.74871369  0.75381324    -1.88000
Cd646      Cd  0.25676436  0.76689856  0.80171212     1.59900
O647        O  0.22975838  0.66721838  0.73453143    -0.77400
O648        O  0.28825449  0.81034530  0.80378879    -0.76100
C649        C  0.32800482  0.71531743  0.70315099     0.86500
C650        C  0.22172686  0.79992494  0.67907042     0.86100
O651        O  0.30529597  0.81555348  0.74958267    -0.75000
C652        C  0.17806633  0.77943504  0.80765093     0.86900
O653        O  0.31938236  0.74712227  0.70183160    -0.75100
C654        C  0.19887905  0.67275652  0.72434963     0.87100
C655        C  0.28315949  0.69738560  0.83080846     0.87400
O656        O  0.28165977  0.68216672  0.80191102    -0.77500
C657        C  0.29284914  0.67771909  0.86054149    -0.09800
C658        C  0.29948989  0.66200138  0.88641526    -0.11400
C659        C  0.26635968  0.63539583  0.00409963    -0.13000
C660        C  0.23195789  0.63729757  0.99953575    -0.28200
H661        H  0.27680994  0.63307101  0.02979688     0.16000
H662        H  0.22125913  0.63599254  0.97387024     0.16600
C663        C  0.32387933  0.85687568  0.78904207    -0.09800
C664        C  0.33809215  0.88389033  0.79564535    -0.11400
C665        C  0.35597117  0.00088973  0.73216816    -0.13000
C666        C  0.35777291  0.00531056  0.76610937    -0.28200
H667        H  0.35701469  0.97491081  0.72148576     0.16000
H668        H  0.36025149  0.03126528  0.77661289     0.16600
C669        C  0.12535170  0.59483340  0.04979679    -0.09800
C670        C  0.10076374  0.57620279  0.04510860    -0.11400
C671        C  0.83459357  0.87919241  0.70507653    -0.09800
C672        C  0.81918209  0.85324047  0.71320692    -0.11400
C673        C  0.86346559  0.99948913  0.73232534    -0.13000
C674        C  0.86413419  0.99592313  0.76642548    -0.28200
H675        H  0.86545292  0.02514757  0.72111128     0.16000
H676        H  0.86560648  0.97018001  0.77754253     0.16600
C677        C  0.95643411  0.60576417  0.93529855    -0.09800
C678        C  0.94984056  0.63167972  0.91937997    -0.11400
C679        C  0.87709527  0.70091374  0.84508679    -0.09800
C680        C  0.85240699  0.70629043  0.82697944    -0.11400
C681        C  0.14931976  0.78887157  0.82896534    -0.09800
C682        C  0.12457198  0.79433625  0.84698177    -0.11400
C683        C  0.98338514  0.74990339  0.89001309    -0.13000
C684        C  0.01780451  0.74511690  0.89044427    -0.28200
H685        H  0.97289665  0.77595809  0.88796770     0.16000
H686        H  0.02836055  0.71905007  0.88890174     0.16600
C687        C  0.82589193  0.14363340  0.78719742    -0.09800
C688        C  0.84099084  0.11727892  0.79481038    -0.11400
C689        C  0.86762297  0.41140773  0.95427295    -0.09800
C690        C  0.89311225  0.42734395  0.96275782    -0.11400
C691        C  0.79343729  0.32490731  0.85035521    -0.09800
C692        C  0.79910766  0.34216483  0.87549466    -0.11400
C693        C  0.75366363  0.37803329  0.01725706    -0.13000
C694        C  0.74902646  0.37933843  0.98328642    -0.28200
H695        H  0.77969802  0.37589703  0.02764657     0.16000
H696        H  0.72301452  0.37809316  0.97271570     0.16600
C697        C  0.88412947  0.30254346  0.66092548    -0.09800
C698        C  0.85873666  0.29424734  0.67686621    -0.11400
C699        C  0.99714852  0.23612599  0.63192227    -0.13000
C700        C  0.00212171  0.27044985  0.63007200    -0.28200
H701        H  0.97101009  0.22569962  0.63143267     0.16000
H702        H  0.02818369  0.28070535  0.62734205     0.16600
C703        C  0.62373958  0.20309063  0.83681997    -0.09800
C704        C  0.64903858  0.20930449  0.81978011    -0.11400
C705        C  0.48140201  0.24747120  0.88110498    -0.13000
C706        C  0.51575802  0.25187783  0.87848915    -0.28200
H707        H  0.47049029  0.22154721  0.88037737     0.16000
H708        H  0.52630831  0.27782151  0.87582449     0.16600
C709        C  0.21133061  0.81990853  0.64990707    -0.09800
C710        C  0.20491657  0.83633343  0.62448654    -0.09800
C711        C  0.24825251  0.87757997  0.48269057    -0.13000
C712        C  0.25227314  0.87591678  0.51671163    -0.28200
H713        H  0.22243980  0.87650439  0.47163569     0.16000
H714        H  0.27815329  0.87385957  0.52749253     0.16600
C715        C  0.04474626  0.12471355  0.59877718    -0.09800
C716        C  0.03917840  0.09887144  0.58236716    -0.11400
C717        C  0.13306831  0.90467871  0.54850640    -0.09800
C718        C  0.10710910  0.92102439  0.54244372    -0.11400
C719        C  0.92343295  0.95338465  0.60300259    -0.09800
C720        C  0.90510437  0.94742790  0.62729182    -0.11400
C721        C  0.39747502  0.57018817  0.96229025    -0.09800
C722        C  0.37260642  0.58825025  0.95649611    -0.11400
C723        C  0.63513098  0.40812315  0.04930633    -0.09800
C724        C  0.60932793  0.42427086  0.04214497    -0.11400
C725        C  0.45183143  0.36512242  0.91640355    -0.09800
C726        C  0.45992286  0.39049110  0.93256043    -0.11400
C727        C  0.43316878  0.45800106  0.10873332    -0.09800
C728        C  0.41797657  0.45084668  0.13471815    -0.11400
C729        C  0.38821727  0.51793397  0.24663080    -0.13000
C730        C  0.38886592  0.48363412  0.25188469    -0.28200
H731        H  0.38667196  0.52794588  0.22072343     0.16000
H732        H  0.38703526  0.47353286  0.27773515     0.16600
C733        C  0.70897048  0.81627024  0.86053582    -0.09800
C734        C  0.70237464  0.83262476  0.88605391    -0.11400
C735        C  0.79693990  0.84188264  0.11912258    -0.09800
C736        C  0.79011008  0.82691185  0.14530602    -0.11400
C737        C  0.73266266  0.86449913  0.00341570    -0.13000
C738        C  0.76718987  0.86472882  0.99970379    -0.28200
H739        H  0.72141260  0.86697376  0.02876340     0.16000
H740        H  0.77835463  0.86589851  0.97423230     0.16600
C741        C  0.95481176  0.86859573  0.41255601    -0.09800
C742        C  0.96259254  0.89413661  0.42851362    -0.11400
C743        C  0.87663486  0.79932532  0.34397811    -0.09800
C744        C  0.85159360  0.79420785  0.32628922    -0.11400
C745        C  0.01934482  0.75440770  0.38223423    -0.13000
C746        C  0.98496426  0.74956749  0.38335924    -0.28200
H747        H  0.02971386  0.78047361  0.38010036     0.16000
H748        H  0.97441928  0.72351332  0.38207555     0.16600
C749        C  0.67350236  0.85630842  0.28891836    -0.09800
C750        C  0.65714474  0.88156962  0.29727148    -0.11400
C751        C  0.62202812  0.99640997  0.23651698    -0.13000
C752        C  0.62379691  0.00037505  0.27056509    -0.28200
H753        H  0.61934091  0.97065052  0.22561437     0.16000
H754        H  0.62333858  0.02620450  0.28162346     0.16600
C755        C  0.91130878  0.54421003  0.13810670    -0.09800
C756        C  0.92632927  0.53643756  0.11217990    -0.11400
C757        C  0.83009622  0.65140760  0.21301970    -0.09800
C758        C  0.84703987  0.62563995  0.20800584    -0.11400
C759        C  0.88206592  0.51504029  0.25590714    -0.13000
C760        C  0.88149337  0.48058883  0.25137405    -0.28200
H761        H  0.88094853  0.52575796  0.28158264     0.16000
H762        H  0.87937001  0.46990090  0.22574964     0.16600
C763        C  0.58589970  0.04792598  0.12890422    -0.09800
C764        C  0.56998997  0.04296049  0.10281500    -0.11400
C765        C  0.62854910  0.91026138  0.95098628    -0.09800
C766        C  0.60406541  0.92894761  0.95620585    -0.11400
C767        C  0.40660877  0.95738926  0.86989062    -0.09800
C768        C  0.42474765  0.96343347  0.89423876    -0.11400
C769        C  0.54074889  0.10826097  0.92503461    -0.09800
C770        C  0.54817493  0.13362115  0.90857230    -0.11400
C771        C  0.14184780  0.21435488  0.67700211    -0.09800
C772        C  0.11606172  0.20608805  0.66165188    -0.11400
C773        C  0.33202868  0.12142903  0.70171912    -0.09800
C774        C  0.31758027  0.14823274  0.70875062    -0.11400
C775        C  0.34872216  0.29454617  0.82607459    -0.09800
C776        C  0.37355578  0.29967238  0.84404202    -0.11400
C777        C  0.16191454  0.61849880  0.70502484    -0.09800
C778        C  0.17838539  0.64374001  0.71327459    -0.11400
C779        C  0.07336670  0.46221985  0.90224653    -0.09800
C780        C  0.09030144  0.45672503  0.87689367    -0.11400
C781        C  0.15703937  0.38554364  0.79860387    -0.09800
C782        C  0.17273663  0.35965142  0.79083864    -0.11400
C783        C  0.12869908  0.50502230  0.76878331    -0.13000
C784        C  0.12826155  0.50050767  0.73475337    -0.28200
H785        H  0.12785852  0.53103923  0.77938490     0.16000
H786        H  0.12583730  0.47457787  0.72419092     0.16600
C787        C  0.20227362  0.15992871  0.87513215    -0.09800
C788        C  0.20728704  0.17821787  0.85071137    -0.11400
C789        C  0.36653911  0.08807480  0.04583675    -0.09800
C790        C  0.39289791  0.07299855  0.03849242    -0.11400
C791        C  0.25195748  0.11639079  0.98068197    -0.13000
C792        C  0.24711875  0.11571936  0.01463296    -0.28200
H793        H  0.27801197  0.11861348  0.97039844     0.16000
H794        H  0.22100309  0.11693883  0.02495008     0.16600
C795        C  0.42794008  0.54450892  0.39057143    -0.09800
C796        C  0.41279457  0.55170504  0.36453051    -0.11400
C797        C  0.66146668  0.37959563  0.69815579    -0.09800
C798        C  0.67828209  0.35447553  0.70616192    -0.11400
C799        C  0.59064314  0.44803303  0.62060526    -0.09800
C800        C  0.57355925  0.45459504  0.59559385    -0.11400
C801        C  0.66097976  0.61101933  0.79505558    -0.09800
C802        C  0.67680200  0.63719615  0.78864318    -0.11400
C803        C  0.59271747  0.53968313  0.87162504    -0.09800
C804        C  0.57610938  0.53356573  0.89700320    -0.11400
C805        C  0.62914242  0.49294727  0.76239274    -0.13000
C806        C  0.62813605  0.49763916  0.72844875    -0.28200
H807        H  0.62832432  0.46686591  0.77277881     0.16000
H808        H  0.62563626  0.52362266  0.71808105     0.16600
C809        C  0.54363573  0.37216684  0.40206775    -0.09800
C810        C  0.53767560  0.39753188  0.41902357    -0.11400
C811        C  0.49701854  0.26213053  0.36447534    -0.13000
C812        C  0.50199948  0.22775858  0.36466117    -0.28200
H813        H  0.47088427  0.27253179  0.36605714     0.16000
H814        H  0.52809236  0.21729135  0.36640100     0.16600
C815        C  0.29648805  0.34667740  0.62285098    -0.09800
C816        C  0.29015215  0.32944811  0.64777683    -0.11400
C817        C  0.36679270  0.41445135  0.54461244    -0.09800
C818        C  0.39265433  0.42968885  0.53603281    -0.11400
C819        C  0.25156469  0.38711213  0.48207644    -0.13000
C820        C  0.24694252  0.38682009  0.51604123    -0.28200
H821        H  0.27761120  0.38571678  0.47161094     0.16000
H822        H  0.22095644  0.38480748  0.52653574     0.16600
C823        C  0.39467046  0.92207692  0.46623317    -0.09800
C824        C  0.36861746  0.90710570  0.45790598    -0.11400
C825        C  0.40054907  0.04851649  0.62680294    -0.09800
C826        C  0.41896588  0.04181223  0.60284424    -0.11400
C827        C  0.59304489  0.94984773  0.38002941    -0.09800
C828        C  0.57673918  0.95524222  0.40579058    -0.11400
C829        C  0.45794492  0.09599758  0.42441749    -0.09800
C830        C  0.45255842  0.12043076  0.40610276    -0.11400
C831        C  0.35738643  0.70406321  0.68349725    -0.09800
C832        C  0.38298597  0.69664085  0.66735619    -0.11400
C833        C  0.45918988  0.60156758  0.57261916    -0.09800
C834        C  0.45294285  0.62538776  0.59161004    -0.11400
C835        C  0.61479667  0.79562149  0.67051657    -0.09800
C836        C  0.64086464  0.78766983  0.68558929    -0.11400
C837        C  0.54543047  0.87367255  0.60166474    -0.09800
C838        C  0.53969975  0.89856347  0.58398029    -0.11400
C839        C  0.50108794  0.73084024  0.63894947    -0.13000
C840        C  0.49607482  0.76518259  0.64030645    -0.28200
H841        H  0.52722147  0.72053790  0.63683492     0.16000
H842        H  0.46996010  0.77565271  0.63888945     0.16600
C843        C  0.28917936  0.17257979  0.14777295    -0.09800
C844        C  0.29457774  0.15534300  0.12263077    -0.11400
C845        C  0.34939191  0.37421188  0.20553221    -0.09800
C846        C  0.33149333  0.34942442  0.21153754    -0.11400
C847        C  0.38260439  0.19763187  0.33728874    -0.09800
C848        C  0.35656814  0.20573896  0.32231154    -0.11400
C849        C  0.21115815  0.32712317  0.35090083    -0.09800
C850        C  0.20437476  0.34518001  0.37517428    -0.11400
C851        C  0.19995253  0.67022385  0.11602257    -0.09800
C852        C  0.20742496  0.68604728  0.14158798    -0.11400
C853        C  0.15119346  0.71352550  0.32078105    -0.09800
C854        C  0.12671930  0.70670088  0.33868584    -0.11400
C855        C  0.32837437  0.65231174  0.28410895    -0.09800
C856        C  0.34572849  0.62726488  0.29081052    -0.11400
C857        C  0.29488351  0.83042842  0.34767964    -0.09800
C858        C  0.29979908  0.84638327  0.37369798    -0.11400
C859        C  0.16590640  0.89019017  0.20282214    -0.09800
C860        C  0.18146959  0.86386822  0.20907580    -0.11400
C861        C  0.09778560  0.04733190  0.38094622    -0.09800
C862        C  0.08061728  0.04070901  0.40580778    -0.11400
C863        C  0.16192239  0.12109968  0.30332059    -0.09800
C864        C  0.17726166  0.14692351  0.29502398    -0.11400
C865        C  0.13546238  0.00204464  0.27132237    -0.13000
C866        C  0.13503015  0.00774351  0.23749843    -0.28200
H867        H  0.13440225  0.97570571  0.28102698     0.16000
H868        H  0.13280764  0.03403989  0.22785782     0.16600
C869        C  0.54424920  0.60450633  0.06978074    -0.09800
C870        C  0.55156243  0.63104367  0.08434298    -0.11400
C871        C  0.65160288  0.70985503  0.17089466    -0.09800
C872        C  0.62735319  0.70323940  0.15266768    -0.11400
C873        C  0.45654305  0.86712454  0.08003932    -0.09800
C874        C  0.46329019  0.89374795  0.06544823    -0.11400
C875        C  0.38010664  0.79768407  0.14980382    -0.09800
C876        C  0.35540051  0.79270271  0.16790888    -0.11400
C877        C  0.48660414  0.74726774  0.10706320    -0.13000
C878        C  0.52105418  0.75159226  0.10754569    -0.28200
H879        H  0.47575220  0.72137689  0.10891483     0.16000
H880        H  0.53183184  0.77753578  0.10918102     0.16600
C881        C  0.04407416  0.61006320  0.42558569    -0.09800
C882        C  0.05202881  0.63569672  0.40984424    -0.11400
C883        C  0.09180728  0.55043084  0.62656709    -0.09800
C884        C  0.07490721  0.54500611  0.60111765    -0.11400
C885        C  0.13263330  0.41577739  0.44996446    -0.09800
C886        C  0.10672254  0.43174595  0.45720650    -0.11400
C887        C  0.92957675  0.45966583  0.39318026    -0.09800
C888        C  0.91354538  0.45058060  0.36820737    -0.11400
C889        C  0.95930672  0.40345337  0.57195508    -0.09800
C890        C  0.95320873  0.37864110  0.58961354    -0.11400
C891        C  0.70664623  0.67741088  0.34939262    -0.09800
C892        C  0.70064649  0.66001488  0.37425049    -0.11400
C893        C  0.63212076  0.58976373  0.45145221    -0.09800
C894        C  0.60616563  0.57383820  0.45840976    -0.11400
C895        C  0.79680385  0.66043927  0.62188533    -0.09800
C896        C  0.79035843  0.67655369  0.64759282    -0.11400
C897        C  0.86864037  0.59493519  0.54274361    -0.09800
C898        C  0.89481380  0.57948865  0.53516481    -0.11400
C899        C  0.74775001  0.62054042  0.51462584    -0.13000
C900        C  0.75153534  0.62051882  0.48054517    -0.28200
H901        H  0.72193567  0.62172079  0.52565943     0.16000
H902        H  0.77727805  0.62268268  0.46950856     0.16600
C903        C  0.67393580  0.13929723  0.21464851    -0.09800
C904        C  0.65700981  0.11411078  0.20735891    -0.11400
C905        C  0.71069248  0.31877318  0.14903996    -0.09800
C906        C  0.70521437  0.33619119  0.12401340    -0.11400
C907        C  0.64229598  0.28659331  0.32156672    -0.09800
C908        C  0.61588659  0.29413994  0.33624412    -0.11400
C909        C  0.84267629  0.37202342  0.30041757    -0.09800
C910        C  0.82508790  0.34690580  0.29436629    -0.11400
C911        C  0.71303135  0.17880476  0.64179231    -0.09800
C912        C  0.70480991  0.16337970  0.61621045    -0.11400
C913        C  0.59842477  0.07833039  0.54391371    -0.09800
C914        C  0.62360241  0.09605569  0.54894814    -0.11400
C915        C  0.90042744  0.07253174  0.46121033    -0.09800
C916        C  0.87513739  0.08963776  0.45458347    -0.11400
C917        C  0.78887467  0.17199352  0.35791397    -0.09800
C918        C  0.79657486  0.15668831  0.38370742    -0.11400
C919        C  0.76671765  0.13084374  0.50224259    -0.13000
C920        C  0.73223125  0.13225960  0.49821227    -0.28200
H921        H  0.77766039  0.12903203  0.52777901     0.16000
H922        H  0.72109464  0.13078991  0.47273613     0.16600
C923        C  0.85193234  0.20282725  0.17829558    -0.09800
C924        C  0.87707913  0.19788404  0.16066922    -0.11400
C925        C  0.03940355  0.39227590  0.07419926    -0.09800
C926        C  0.04706624  0.36611226  0.08924799    -0.11400
C927        C  0.15031796  0.29135850  0.17571262    -0.09800
C928        C  0.12526194  0.29714434  0.15826480    -0.11400
C929        C  0.01792192  0.24661297  0.11806469    -0.13000
C930        C  0.98346113  0.25052554  0.12010206    -0.28200
H931        H  0.02915933  0.22078859  0.11807333     0.16000
H932        H  0.97244473  0.27621454  0.12353681     0.16600
C933        C  0.13321153  0.08708702  0.94896522    -0.09800
C934        C  0.10724699  0.07139904  0.95613205    -0.11400
C935        C  0.07784621  0.96652178  0.10387153    -0.09800
C936        C  0.09541853  0.96169528  0.12887248    -0.11400
C937        C  0.96129221  0.10718732  0.06998158    -0.09800
C938        C  0.95374891  0.13249093  0.08650329    -0.11400
C939        C  0.89863418  0.92743524  0.04190093    -0.09800
C940        C  0.87347524  0.91011363  0.04806994    -0.11400
C941        C  0.92699756  0.03907996  0.89611866    -0.09800
C942        C  0.90930845  0.04526408  0.87139345    -0.11400
C943        C  0.04910362  0.86447074  0.91800477    -0.09800
C944        C  0.04179708  0.89102278  0.93263935    -0.11400
loop_ 
_geom_bond_atom_site_label_1 
_geom_bond_atom_site_label_2 
_geom_bond_distance 
_geom_bond_site_symmetry_2 
_ccdc_geom_bond_type 
O1           C17   1.272   1_556  A
O1           Zn7   2.011       .  S
C2           O18   1.273   1_545  A
C2           O15   1.274       .  A
C2          C941   1.438       .  S
O3           C16   1.273       .  A
O3          Cd10   2.073       .  S
O4           C22   1.274       .  A
O4          Cd13   2.075   1_455  S
O5           C19   1.273       .  A
O5           Cd9   2.071   1_545  S
O6           C17   1.273       .  A
O6           Cd9   2.072       .  S
Zn7          O18   2.022       .  S
Zn7          O20   2.022   1_655  S
Zn7          O12   1.944   1_665  S
O8           C19   1.274       .  A
O8          Cd13   2.075   1_554  S
Cd9          O11   2.069   1_655  S
Cd9          O12   2.006   1_664  S
Cd10         O14   2.068   1_556  S
Cd10         O23   2.064   1_565  S
Cd10         O12   2.004   1_565  S
O11          C21   1.273       .  A
O12         Cd13   2.006   1_455  S
Cd13         O15   2.078       .  S
O14          C21   1.272       .  A
C16          O20   1.273       .  A
C16         C944   1.437       .  S
C17         C939   1.433       .  S
C19         C937   1.436       .  S
C21         C935   1.433       .  S
C22          O23   1.273       .  A
C22         C934   1.434       .  S
C24         C926   1.436       .  S
C24          N25   1.358       .  A
C24          N29   1.358       .  A
N25          C26   1.360       .  A
C26          N27   1.355       .  A
C26         C929   1.471       .  S
N27          C28   1.355       .  A
C28         C928   1.433       .  S
C28          N29   1.357       .  A
C30         C924   1.435       .  S
C30          N31   1.358       .  A
C30          N35   1.356       .  A
N31          C32   1.358       .  A
C32         C938   1.436       .  S
C32          N33   1.358       .  A
N33          C34   1.359       .  A
C34          N35   1.356       .  A
C34         C930   1.473       .  S
C36         C916   1.436       .  S
C36          N37   1.358       .  A
C36          N41   1.356       .  A
N37          C38   1.359       .  A
C38         C918   1.437       .  S
C38          N39   1.358       .  A
N39          C40   1.359       .  A
C40          N41   1.356       .  A
C40         C919   1.473       .  S
C42         C912   1.437       .  S
C42          N43   1.358       .  A
C42          N47   1.358       .  A
N43          C44   1.357       .  A
C44         C914   1.435       .  S
C44          N45   1.356       .  A
N45          C46   1.356       .  A
C46          N47   1.360       .  A
C46         C920   1.473       .  S
O48          C64   1.272       .  A
O48         Zn54   2.014       .  S
C49          O65   1.272       .  A
C49          O62   1.274       .  A
C49         C903   1.436       .  S
O50          C63   1.274       .  A
O50         Cd57   2.075       .  S
O51          C69   1.273       .  A
O51         Cd60   2.072       .  S
O52          C66   1.274       .  A
O52         Cd56   2.075       .  S
O53          C64   1.274       .  A
O53         Cd56   2.074       .  S
Zn54         O65   2.017       .  S
Zn54         O67   2.021       .  S
Zn54         O59   1.948       .  S
O55          C66   1.274       .  A
O55         Cd60   2.074       .  S
Cd56         O58   2.077       .  S
Cd56         O59   2.006       .  S
Cd57         O61   2.076       .  S
Cd57         O70   2.072       .  S
Cd57         O59   2.005       .  S
O58          C68   1.274       .  A
O59         Cd60   2.007       .  S
Cd60         O62   2.075       .  S
O61          C68   1.274       .  A
C63          O67   1.273       .  A
C63         C917   1.437       .  S
C64         C907   1.434       .  S
C66         C905   1.437       .  S
C68         C910   1.438       .  S
C69          O70   1.274       .  A
C69         C923   1.435       .  S
C71         C895   1.439       .  S
C71          N72   1.356       .  A
C71          N76   1.359       .  A
N72          C73   1.357       .  A
C73          N74   1.361       .  A
C73         C899   1.476       .  S
N74          C75   1.359       .  A
C75         C897   1.441       .  S
C75          N76   1.360       .  A
C77         C893   1.438       .  S
C77          N78   1.359       .  A
C77          N82   1.360       .  A
N78          C79   1.357       .  A
C79         C892   1.435       .  S
C79          N80   1.356       .  A
N80          C81   1.356       .  A
C81          N82   1.361       .  A
C81         C900   1.475       .  S
O83          C99   1.272       .  A
O83         Zn89   2.017       .  S
C84         O100   1.272   1_655  A
C84          O97   1.273       .  A
C84         C889   1.434       .  S
O85          C98   1.274       .  A
O85         Cd92   2.078       .  S
O86         C104   1.274       .  A
O86         Cd95   2.078       .  S
O87         C101   1.275       .  A
O87         Cd91   2.087   1_655  S
O88          C99   1.275       .  A
O88         Cd91   2.085       .  S
Zn89        O100   2.013       .  S
Zn89        O102   2.022       .  S
Zn89         O94   1.948       .  S
O90         C101   1.274       .  A
O90         Cd95   2.074       .  S
Cd91         O93   2.074       .  S
Cd91         O94   2.011       .  S
Cd92         O96   2.075       .  S
Cd92        O105   2.078   1_455  S
Cd92         O94   2.008       .  S
O93         C103   1.274       .  A
O94         Cd95   2.008   1_455  S
Cd95         O97   2.074       .  S
O96         C103   1.274       .  A
C98         O102   1.273       .  A
C98         C886   1.438       .  S
C99         C884   1.439       .  S
C101        C898   1.441       .  S
C103        C881   1.436       .  S
C104        O105   1.275       .  A
C104        C887   1.439       .  S
C106        C875   1.432       .  S
C106        N107   1.356       .  A
C106        N111   1.355       .  A
N107        C108   1.357       .  A
C108        C873   1.435       .  S
C108        N109   1.358       .  A
N109        C110   1.360       .  A
C110        N111   1.356       .  A
C110        C877   1.472       .  S
C112        C872   1.432       .  S
C112        N113   1.355       .  A
C112        N117   1.357       .  A
N113        C114   1.355       .  A
C114        N115   1.359       .  A
C114        C878   1.472       .  S
N115        C116   1.358       .  A
C116        C870   1.435       .  S
C116        N117   1.358       .  A
C118        C861   1.434       .  S
C118        N119   1.357       .  A
C118        N123   1.358       .  A
N119        C120   1.356       .  A
C120        N121   1.358       .  A
C120        C865   1.473       .  S
N121        C122   1.357       .  A
C122        C863   1.434       .  S
C122        N123   1.358       .  A
C124        C936   1.433       .  S
C124        N125   1.356       .  A
C124        N129   1.356       .  A
N125        C126   1.357       .  A
C126        N127   1.359       .  A
C126        C866   1.472   1_565  S
N127        C128   1.358       .  A
C128        C859   1.434       .  S
C128        N129   1.357       .  A
O130        C146   1.273       .  A
O130       Zn136   2.017       .  S
C131        O147   1.272       .  A
C131        O144   1.274       .  A
C131        C852   1.436       .  S
O132        C145   1.273       .  A
O132       Cd139   2.071       .  S
O133        C151   1.274       .  A
O133       Cd142   2.077       .  S
O134        C148   1.272       .  A
O134       Cd138   2.067       .  S
O135        C146   1.272       .  A
O135       Cd138   2.067       .  S
Zn136       O147   2.012       .  S
Zn136       O149   2.008       .  S
Zn136       O141   1.941       .  S
O137        C148   1.275       .  A
O137       Cd142   2.077       .  S
Cd138       O140   2.062       .  S
Cd138       O141   2.000       .  S
Cd139       O143   2.072       .  S
Cd139       O152   2.064       .  S
Cd139       O141   2.006       .  S
O140        C150   1.272       .  A
O141       Cd142   2.005       .  S
Cd142       O144   2.079       .  S
O143        C150   1.273       .  A
C145        O149   1.271       .  A
C145        C876   1.432       .  S
C146        C855   1.433       .  S
C148        C853   1.435       .  S
C150        C857   1.432       .  S
C151        O152   1.272       .  A
C151        C860   1.434       .  S
O153        C169   1.272       .  A
O153       Zn159   2.013       .  S
C154        O170   1.273       .  A
C154        O167   1.273       .  A
C154        C849   1.436       .  S
O155        C168   1.272       .  A
O155       Cd162   2.066       .  S
O156        C174   1.274       .  A
O156       Cd165   2.077       .  S
O157        C171   1.273       .  A
O157       Cd161   2.068       .  S
O158        C169   1.272       .  A
O158       Cd161   2.069       .  S
Zn159       O170   2.020       .  S
Zn159       O172   2.016       .  S
Zn159       O164   1.943       .  S
O160        C171   1.273       .  A
O160       Cd165   2.068       .  S
Cd161       O163   2.068       .  S
Cd161       O164   2.004       .  S
Cd162       O166   2.070       .  S
Cd162       O175   2.064       .  S
Cd162       O164   2.001       .  S
O163        C173   1.273       .  A
O164       Cd165   2.005       .  S
Cd165       O167   2.072       .  S
O166        C173   1.273       .  A
C168        O172   1.272       .  A
C168        C848   1.432       .  S
C169        C846   1.433       .  S
C171        C927   1.432       .  S
C173        C843   1.434       .  S
C174        O175   1.273       .  A
C174        C864   1.434       .  S
C176        C837   1.434       .  S
C176        N177   1.356       .  A
C176        N181   1.357       .  A
N177        C178   1.356       .  A
C178        N179   1.359       .  A
C178        C840   1.472       .  S
N179        C180   1.357       .  A
C180        C835   1.435       .  S
C180        N181   1.358       .  A
C182        C832   1.437       .  S
C182        N183   1.359       .  A
C182        N187   1.358       .  A
N183        C184   1.359       .  A
C184        C834   1.435       .  S
C184        N185   1.356       .  A
N185        C186   1.355       .  A
C186        N187   1.358       .  A
C186        C839   1.471       .  S
O188        C204   1.272   1_565  A
O188       Zn194   2.012       .  S
C189        O205   1.272       .  A
C189        O202   1.272       .  A
C189        C823   1.434       .  S
O190        C203   1.274       .  A
O190       Cd197   2.076       .  S
O191        C209   1.272       .  A
O191       Cd200   2.064       .  S
O192        C206   1.272       .  A
O192       Cd196   2.064       .  S
O193        C204   1.272       .  A
O193       Cd196   2.069       .  S
Zn194       O205   2.018       .  S
Zn194       O207   2.012       .  S
Zn194       O199   1.942       .  S
O195        C206   1.272       .  A
O195       Cd200   2.064   1_545  S
Cd196       O198   2.071       .  S
Cd196       O199   2.005   1_545  S
Cd197       O201   2.071   1_565  S
Cd197       O210   2.080       .  S
Cd197       O199   2.006       .  S
O198        C208   1.273       .  A
O199       Cd200   2.001       .  S
Cd200       O202   2.066       .  S
O201        C208   1.274       .  A
C203        O207   1.272       .  A
C203        C838   1.434       .  S
C204        C826   1.433       .  S
C206        C829   1.431       .  S
C208        C913   1.434       .  S
C209        O210   1.274       .  A
C209        C828   1.435       .  S
C211        C817   1.438       .  S
C211        N212   1.357       .  A
C211        N216   1.359       .  A
N212        C213   1.359       .  A
C213        N214   1.356       .  A
C213        C820   1.473       .  S
N214        C215   1.356       .  A
C215        C815   1.436       .  S
C215        N216   1.359       .  A
C217        C850   1.436       .  S
C217        N218   1.359       .  A
C217        N222   1.355       .  A
N218        C219   1.360       .  A
C219        C885   1.439       .  S
C219        N220   1.359       .  A
N220        C221   1.359       .  A
C221        N222   1.355       .  A
C221        C819   1.471       .  S
C223        C908   1.435       .  S
C223        N224   1.358       .  A
C223        N228   1.357       .  A
N224        C225   1.359       .  A
C225        N226   1.356       .  A
C225        C811   1.471       .  S
N226        C227   1.355       .  A
C227        C809   1.433       .  S
C227        N228   1.357       .  A
C229        C830   1.431       .  S
C229        N230   1.357       .  A
C229        N234   1.356       .  A
N230        C231   1.357       .  A
C231        C847   1.433       .  S
C231        N232   1.357       .  A
N232        C233   1.358       .  A
C233        N234   1.356       .  A
C233        C812   1.471       .  S
C235        C801   1.439       .  S
C235        N236   1.359       .  A
C235        N240   1.359       .  A
N236        C237   1.360       .  A
C237        N238   1.356       .  A
C237        C805   1.473       .  S
N238        C239   1.355       .  A
C239        C803   1.435       .  S
C239        N240   1.358       .  A
C241        C799   1.437       .  S
C241        N242   1.357       .  A
C241        N246   1.359       .  A
N242        C243   1.356       .  A
C243        N244   1.359       .  A
C243        C806   1.474       .  S
N244        C245   1.358       .  A
C245        C797   1.439       .  S
C245        N246   1.360       .  A
O247        C263   1.272       .  A
O247       Zn253   2.016       .  S
C248        O264   1.273       .  A
C248        O261   1.274       .  A
C248        C894   1.438       .  S
O249        C262   1.274       .  A
O249       Cd256   2.075       .  S
O250        C268   1.273       .  A
O250       Cd259   2.069       .  S
O251        C265   1.273       .  A
O251       Cd255   2.068       .  S
O252        C263   1.273       .  A
O252       Cd255   2.076       .  S
Zn253       O264   2.022       .  S
Zn253       O266   2.016       .  S
Zn253       O258   1.945       .  S
O254        C265   1.273       .  A
O254       Cd259   2.069       .  S
Cd255       O257   2.077       .  S
Cd255       O258   2.008       .  S
Cd256       O260   2.073       .  S
Cd256       O269   2.081       .  S
Cd256       O258   2.008       .  S
O257        C267   1.274       .  A
O258       Cd259   2.005       .  S
Cd259       O261   2.076       .  S
O260        C267   1.274       .  A
C262        O266   1.273       .  A
C262        C833   1.435       .  S
C263        C800   1.437       .  S
C265        C810   1.432       .  S
C267        C818   1.438       .  S
C268        O269   1.275       .  A
C268        C795   1.437       .  S
C270        C844   1.434       .  S
C270        N271   1.356       .  A
C270        N275   1.357       .  A
N271        C272   1.357       .  A
C272        N273   1.360       .  A
C272        C792   1.473       .  S
N273        C274   1.358       .  A
C274        C789   1.436       .  S
C274        N275   1.357       .  A
C276        C933   1.434       .  S
C276        N277   1.357       .  A
C276        N281   1.358       .  A
N277        C278   1.356       .  A
C278        C787   1.433       .  S
C278        N279   1.357       .  A
N279        C280   1.357       .  A
C280        N281   1.359       .  A
C280        C791   1.473       .  S
C282        C780   1.437       .  S
C282        N283   1.357       .  A
C282        N287   1.358       .  A
N283        C284   1.357       .  A
C284        N285   1.359       .  A
C284        C783   1.475       .  S
N285        C286   1.358       .  A
C286        C781   1.437       .  S
C286        N287   1.358       .  A
C288        C883   1.440       .  S
C288        N289   1.357       .  A
C288        N293   1.359       .  A
N289        C290   1.357       .  A
C290        N291   1.359       .  A
C290        C784   1.475       .  S
N291        C292   1.358       .  A
C292        C777   1.439       .  S
C292        N293   1.360       .  A
O294        C310   1.272       .  A
O294       Zn300   2.013       .  S
C295        O311   1.272       .  A
C295        O308   1.273       .  A
C295        C775   1.433       .  S
O296        C309   1.273       .  A
O296       Cd303   2.077       .  S
O297        C315   1.273       .  A
O297       Cd306   2.070       .  S
O298        C312   1.274       .  A
O298       Cd302   2.075       .  S
O299        C310   1.274       .  A
O299       Cd302   2.078       .  S
Zn300       O311   2.009       .  S
Zn300       O313   2.003       .  S
Zn300       O305   1.942       .  S
O301        C312   1.274       .  A
O301       Cd306   2.074       .  S
Cd302       O304   2.075       .  S
Cd302       O305   2.006       .  S
Cd303       O307   2.068       .  S
Cd303       O316   2.079       .  S
Cd303       O305   2.008       .  S
O304        C314   1.274       .  A
O305       Cd306   2.005       .  S
Cd306       O308   2.074       .  S
O307        C314   1.273       .  A
C309        O313   1.270       .  A
C309        C788   1.433       .  S
C310        C774   1.436       .  S
C312        C816   1.436       .  S
C314        C771   1.434       .  S
C315        O316   1.274       .  A
C315        C782   1.437       .  S
O317        C333   1.272       .  A
O317       Zn323   2.010   1_545  S
C318        O334   1.271       .  A
C318        O331   1.272       .  A
C318        C874   1.434       .  S
O319        C332   1.274       .  A
O319       Cd326   2.077   1_565  S
O320        C338   1.272       .  A
O320       Cd329   2.065   1_556  S
O321        C335   1.274       .  A
O321       Cd325   2.080       .  S
O322        C333   1.275       .  A
O322       Cd325   2.082       .  S
Zn323       O334   2.013       .  S
Zn323       O336   2.008   1_554  S
Zn323       O328   1.942   1_564  S
O324        C335   1.273       .  A
O324       Cd329   2.066   1_545  S
Cd325       O327   2.079   1_554  S
Cd325       O328   2.008   1_554  S
Cd326       O330   2.076       .  S
Cd326       O339   2.073   1_545  S
Cd326       O328   2.007       .  S
O327        C337   1.275       .  A
O328       Cd329   2.003   1_546  S
Cd329       O331   2.071       .  S
O330        C337   1.274       .  A
C332        O336   1.272       .  A
C332        C766   1.434       .  S
C333        C764   1.436       .  S
C335        C790   1.435       .  S
C337        C769   1.438       .  S
C338        O339   1.274       .  A
C338        C768   1.433       .  S
C340        C909   1.438       .  S
C340        N341   1.357       .  A
C340        N345   1.360       .  A
N341        C342   1.356       .  A
C342        N343   1.358       .  A
C342        C760   1.473       .  S
N343        C344   1.357       .  A
C344        C888   1.439       .  S
C344        N345   1.360       .  A
C346        C758   1.435       .  S
C346        N347   1.357       .  A
C346        N351   1.357       .  A
N347        C348   1.357       .  A
C348        N349   1.359       .  A
C348        C759   1.473       .  S
N349        C350   1.357       .  A
C350        C755   1.436       .  S
C350        N351   1.358       .  A
C352        C763   1.436       .  S
C352        N353   1.357       .  A
C352        N357   1.357       .  A
N353        C354   1.357       .  A
C354        N355   1.359       .  A
C354        C751   1.474   1_545  S
N355        C356   1.357       .  A
C356        C904   1.436       .  S
C356        N357   1.358       .  A
C358        C827   1.436       .  S
C358        N359   1.358       .  A
C358        N363   1.357       .  A
N359        C360   1.358       .  A
C360        C750   1.436       .  S
C360        N361   1.357       .  A
N361        C362   1.359       .  A
C362        N363   1.357       .  A
C362        C752   1.474   1_565  S
C364        C882   1.437       .  S
C364        N365   1.357       .  A
C364        N369   1.359       .  A
N365        C366   1.358       .  A
C366        N367   1.355       .  A
C366        C745   1.471       .  S
N367        C368   1.355       .  A
C368        C854   1.435       .  S
C368        N369   1.359       .  A
C370        C743   1.434       .  S
C370        N371   1.357       .  A
C370        N375   1.357       .  A
N371        C372   1.356       .  A
C372        N373   1.359       .  A
C372        C746   1.471       .  S
N373        C374   1.357       .  A
C374        C741   1.434       .  S
C374        N375   1.357       .  A
C376        C940   1.433       .  S
C376        N377   1.356       .  A
C376        N381   1.357       .  A
N377        C378   1.356       .  A
C378        N379   1.360       .  A
C378        C738   1.474   1_554  S
N379        C380   1.359       .  A
C380        C735   1.436       .  S
C380        N381   1.357       .  A
C382        C734   1.439       .  S
C382        N383   1.359       .  A
C382        N387   1.360       .  A
N383        C384   1.357       .  A
C384        C765   1.435       .  S
C384        N385   1.355       .  A
N385        C386   1.356       .  A
C386        N387   1.360       .  A
C386        C737   1.473   1_556  S
O388        C404   1.272       .  A
O388       Zn394   2.012       .  S
C389        O405   1.273       .  A
C389        O402   1.273       .  A
C389        C749   1.435       .  S
O390        C403   1.274       .  A
O390       Cd397   2.077       .  S
O391        C409   1.273       .  A
O391       Cd400   2.070       .  S
O392        C406   1.273       .  A
O392       Cd396   2.070       .  S
O393        C404   1.272       .  A
O393       Cd396   2.068       .  S
Zn394       O405   2.022       .  S
Zn394       O407   2.014       .  S
Zn394       O399   1.944       .  S
O395        C406   1.273       .  A
O395       Cd400   2.069       .  S
Cd396       O398   2.065       .  S
Cd396       O399   2.004       .  S
Cd397       O401   2.077       .  S
Cd397       O410   2.071       .  S
Cd397       O399   2.006       .  S
O398        C408   1.272       .  A
O399       Cd400   2.002       .  S
Cd400       O402   2.070       .  S
O401        C408   1.274       .  A
C403        O407   1.272       .  A
C403        C736   1.436       .  S
C404        C871   1.432       .  S
C406        C891   1.434       .  S
C408        C757   1.435       .  S
C409        O410   1.274       .  A
C409        C744   1.434       .  S
C411        C796   1.437       .  S
C411        N412   1.358       .  A
C411        N416   1.358       .  A
N412        C413   1.358       .  A
C413        C856   1.434       .  S
C413        N414   1.355       .  A
N414        C415   1.356       .  A
C415        N416   1.360       .  A
C415        C729   1.473       .  S
C417        C845   1.433       .  S
C417        N418   1.357       .  A
C417        N422   1.356       .  A
N418        C419   1.358       .  A
C419        C728   1.436       .  S
C419        N420   1.358       .  A
N420        C421   1.360       .  A
C421        N422   1.356       .  A
C421        C730   1.472       .  S
O423        C439   1.273       .  A
O423       Zn429   2.019       .  S
C424        O440   1.273       .  A
C424        O437   1.274       .  A
C424        C724   1.438       .  S
O425        C438   1.274       .  A
O425       Cd432   2.077   1_556  S
O426        C444   1.273       .  A
O426       Cd435   2.069       .  S
O427        C441   1.272       .  A
O427       Cd431   2.065   1_554  S
O428        C439   1.273       .  A
O428       Cd431   2.070       .  S
Zn429       O440   2.020   1_556  S
Zn429       O442   2.019       .  S
Zn429       O434   1.948   1_556  S
O430        C441   1.274       .  A
O430       Cd435   2.076       .  S
Cd431       O433   2.071       .  S
Cd431       O434   2.005   1_556  S
Cd432       O436   2.079   1_554  S
Cd432       O445   2.078       .  S
Cd432       O434   2.008       .  S
O433        C443   1.273       .  A
O434       Cd435   2.007       .  S
Cd435       O437   2.077       .  S
O436        C443   1.274       .  A
C438        O442   1.273       .  A
C438        C726   1.436       .  S
C439        C804   1.435       .  S
C441        C869   1.435       .  S
C443        C721   1.438       .  S
C444        O445   1.274       .  A
C444        C727   1.436       .  S
O446        C462   1.272       .  A
O446       Zn452   2.017       .  S
C447        O463   1.273       .  A
C447        O460   1.274       .  A
C447        C719   1.438       .  S
O448        C461   1.273       .  A
O448       Cd455   2.073       .  S
O449        C467   1.274       .  A
O449       Cd458   2.080   1_455  S
O450        C464   1.273       .  A
O450       Cd454   2.073   1_565  S
O451        C462   1.273       .  A
O451       Cd454   2.074       .  S
Zn452       O463   2.018   1_545  S
Zn452       O465   2.016       .  S
Zn452       O457   1.943   1_645  S
O453        C464   1.273       .  A
O453       Cd458   2.066       .  S
Cd454       O456   2.067   1_655  S
Cd454       O457   2.006   1_645  S
Cd455       O459   2.072       .  S
Cd455       O468   2.069   1_545  S
Cd455       O457   2.006   1_545  S
O456        C466   1.273       .  A
O457       Cd458   2.007   1_455  S
Cd458       O460   2.081       .  S
O459        C466   1.273       .  A
C461        O465   1.273   1_455  A
C461        C716   1.434       .  S
C462        C915   1.436       .  S
C464        C742   1.433       .  S
C466        C862   1.434       .  S
C467        O468   1.273       .  A
C467        C718   1.437       .  S
C469        C858   1.433       .  S
C469        N470   1.356       .  A
C469        N474   1.357       .  A
N470        C471   1.357       .  A
C471        C824   1.434       .  S
C471        N472   1.357       .  A
N472        C473   1.360       .  A
C473        N474   1.357       .  A
C473        C711   1.475       .  S
C475        C717   1.437       .  S
C475        N476   1.360       .  A
C475        N480   1.358       .  A
N476        C477   1.360       .  A
C477        N478   1.356       .  A
C477        C712   1.474       .  S
N478        C479   1.355       .  A
C479        C710   1.435       .  S
C479        N480   1.357       .  A
C481        C776   1.434       .  S
C481        N482   1.358       .  A
C481        N486   1.356       .  A
N482        C483   1.358       .  A
C483        C725   1.437       .  S
C483        N484   1.358       .  A
N484        C485   1.359       .  A
C485        N486   1.355       .  A
C485        C705   1.472       .  S
C487        C770   1.438       .  S
C487        N488   1.358       .  A
C487        N492   1.359       .  A
N488        C489   1.359       .  A
C489        N490   1.356       .  A
C489        C706   1.473       .  S
N490        C491   1.356       .  A
C491        C703   1.437       .  S
C491        N492   1.359       .  A
C493        C772   1.435       .  S
C493        N494   1.358       .  A
C493        N498   1.357       .  A
N494        C495   1.358       .  A
C495        C715   1.435       .  S
C495        N496   1.356       .  A
N496        C497   1.356       .  A
C497        N498   1.358       .  A
C497        C699   1.471   1_455  S
C499        C890   1.435       .  S
C499        N500   1.356       .  A
C499        N504   1.358       .  A
N500        C501   1.356       .  A
C501        N502   1.358       .  A
C501        C700   1.471   1_655  S
N502        C503   1.356       .  A
C503        C697   1.435       .  S
C503        N504   1.359       .  A
C505        C723   1.438       .  S
C505        N506   1.358       .  A
C505        N510   1.359       .  A
N506        C507   1.359       .  A
C507        N508   1.357       .  A
C507        C693   1.474       .  S
N508        C509   1.357       .  A
C509        C906   1.437       .  S
C509        N510   1.358       .  A
C511        C689   1.438       .  S
C511        N512   1.357       .  A
C511        N516   1.360       .  A
N512        C513   1.359       .  A
C513        N514   1.357       .  A
C513        C694   1.473       .  S
N514        C515   1.357       .  A
C515        C692   1.438       .  S
C515        N516   1.359       .  A
O517        C533   1.273       .  A
O517       Zn523   2.019       .  S
C518        O534   1.273       .  A
C518        O531   1.273       .  A
C518        C798   1.439       .  S
O519        C532   1.274       .  A
O519       Cd526   2.078       .  S
O520        C538   1.273       .  A
O520       Cd529   2.069       .  S
O521        C535   1.274       .  A
O521       Cd525   2.075       .  S
O522        C533   1.274       .  A
O522       Cd525   2.081       .  S
Zn523       O534   2.026       .  S
Zn523       O536   2.019       .  S
Zn523       O528   1.949       .  S
O524        C535   1.273       .  A
O524       Cd529   2.070       .  S
Cd525       O527   2.088       .  S
Cd525       O528   2.011       .  S
Cd526       O530   2.075       .  S
Cd526       O539   2.078       .  S
Cd526       O528   2.008       .  S
O527        C537   1.276       .  A
O528       Cd529   2.007       .  S
Cd529       O531   2.075       .  S
O530        C537   1.274       .  A
C532        O536   1.273       .  A
C532        C704   1.437       .  S
C533        C691   1.438       .  S
C535        C698   1.435       .  S
C537        C687   1.441       .  S
C538        O539   1.274       .  A
C538        C911   1.436       .  S
C540        C682   1.435       .  S
C540        N541   1.358       .  A
C540        N545   1.356       .  A
N541        C542   1.358       .  A
C542        C943   1.437       .  S
C542        N543   1.358       .  A
N543        C544   1.360       .  A
C544        N545   1.356       .  A
C544        C684   1.473       .  S
C546        C678   1.436       .  S
C546        N547   1.358       .  A
C546        N551   1.359       .  A
N547        C548   1.357       .  A
C548        C679   1.434       .  S
C548        N549   1.356       .  A
N549        C550   1.356       .  A
C550        N551   1.360       .  A
C550        C683   1.472       .  S
C552        C942   1.438       .  S
C552        N553   1.356       .  A
C552        N557   1.359       .  A
N553        C554   1.356       .  A
C554        N555   1.361       .  A
C554        C674   1.475   1_545  S
N555        C556   1.360       .  A
C556        C688   1.442       .  S
C556        N557   1.360       .  A
C558        C720   1.438       .  S
C558        N559   1.356       .  A
C558        N563   1.359       .  A
N559        C560   1.356       .  A
C560        N561   1.360       .  A
C560        C673   1.475       .  S
N561        C562   1.359       .  A
C562        C671   1.441       .  S
C562        N563   1.360       .  A
O564        C580   1.273       .  A
O564       Zn570   2.021       .  S
C565        O581   1.273       .  A
C565        O578   1.274       .  A
C565        C802   1.439       .  S
O566        C579   1.274       .  A
O566       Cd573   2.072       .  S
O567        C585   1.274       .  A
O567       Cd576   2.075       .  S
O568        C582   1.274       .  A
O568       Cd572   2.074       .  S
O569        C580   1.274       .  A
O569       Cd572   2.081       .  S
Zn570       O581   2.023       .  S
Zn570       O583   2.018       .  S
Zn570       O575   1.949       .  S
O571        C582   1.273       .  A
O571       Cd576   2.067       .  S
Cd572       O574   2.083       .  S
Cd572       O575   2.010       .  S
Cd573       O577   2.075       .  S
Cd573       O586   2.077       .  S
Cd573       O575   2.006       .  S
O574        C584   1.275       .  A
O575       Cd576   2.007       .  S
Cd576       O578   2.080       .  S
O577        C584   1.274       .  A
C579        O583   1.273       .  A
C579        C836   1.435       .  S
C580        C896   1.439       .  S
C582        C680   1.434       .  S
C584        C672   1.440       .  S
C585        O586   1.274       .  A
C585        C733   1.438       .  S
O587        C603   1.273       .  A
O587       Zn593   2.024       .  S
C588        O604   1.274   1_556  A
C588        O601   1.274       .  A
C588        C690   1.438       .  S
O589        C602   1.274       .  A
O589       Cd596   2.076       .  S
O590        C608   1.273       .  A
O590       Cd599   2.071   1_455  S
O591        C605   1.273       .  A
O591       Cd595   2.067   1_556  S
O592        C603   1.273       .  A
O592       Cd595   2.068       .  S
Zn593       O604   2.024       .  S
Zn593       O606   2.019       .  S
Zn593       O598   1.949       .  S
O594        C605   1.274       .  A
O594       Cd599   2.076       .  S
Cd595       O597   2.066   1_655  S
Cd595       O598   2.004       .  S
Cd596       O600   2.075       .  S
Cd596       O609   2.075   1_554  S
Cd596       O598   2.007   1_455  S
O597        C607   1.272       .  A
O598       Cd599   2.005   1_554  S
Cd599       O601   2.074       .  S
O600        C607   1.274       .  A
C602        O606   1.273   1_455  A
C602        C925   1.436       .  S
C603        C756   1.435       .  S
C605        C677   1.435       .  S
C607        C670   1.434       .  S
C608        O609   1.273       .  A
C608        C779   1.436       .  S
C610        C825   1.433       .  S
C610        N611   1.355       .  A
C610        N615   1.357       .  A
N611        C612   1.355       .  A
C612        N613   1.360       .  A
C612        C665   1.472       .  S
N613        C614   1.359       .  A
C614        C773   1.437       .  S
C614        N615   1.358       .  A
C616        C767   1.434       .  S
C616        N617   1.355       .  A
C616        N621   1.357       .  A
N617        C618   1.356       .  A
C618        N619   1.360       .  A
C618        C666   1.473   1_565  S
N619        C620   1.359       .  A
C620        C664   1.437       .  S
C620        N621   1.358       .  A
C622        C669   1.435       .  S
C622        N623   1.356       .  A
C622        N627   1.357       .  A
N623        C624   1.356       .  A
C624        N625   1.360       .  A
C624        C660   1.474   1_554  S
N625        C626   1.359       .  A
C626        C851   1.437       .  S
C626        N627   1.358       .  A
C628        C722   1.438       .  S
C628        N629   1.357       .  A
C628        N633   1.358       .  A
N629        C630   1.357       .  A
C630        N631   1.360       .  A
C630        C659   1.475   1_556  S
N631        C632   1.359       .  A
C632        C658   1.439       .  S
C632        N633   1.359       .  A
O634        C650   1.272       .  A
O634       Zn640   2.016       .  S
C635        O651   1.273       .  A
C635        O648   1.273       .  A
C635        C663   1.437       .  S
O636        C649   1.274       .  A
O636       Cd643   2.079       .  S
O637        C655   1.274       .  A
O637       Cd646   2.073       .  S
O638        C652   1.274       .  A
O638       Cd642   2.073       .  S
O639        C650   1.273       .  A
O639       Cd642   2.075       .  S
Zn640       O651   2.021       .  S
Zn640       O653   2.018       .  S
Zn640       O645   1.948       .  S
O641        C652   1.273       .  A
O641       Cd646   2.069       .  S
Cd642       O644   2.077       .  S
Cd642       O645   2.008       .  S
Cd643       O647   2.077       .  S
Cd643       O656   2.082       .  S
Cd643       O645   2.007       .  S
O644        C654   1.274       .  A
O645       Cd646   2.005       .  S
Cd646       O648   2.074       .  S
O647        C654   1.274       .  A
C649        O653   1.273       .  A
C649        C831   1.437       .  S
C650        C709   1.435       .  S
C652        C681   1.434       .  S
C654        C778   1.439       .  S
C655        O656   1.275       .  A
C655        C657   1.439       .  S
C657        C658   1.208       .  T
C659        C660   1.341   1_554  D
C659        H661   1.087       .  S
C660        H662   1.087       .  S
C663        C664   1.207       .  T
C665        C666   1.340       .  D
C665        H667   1.087   1_545  S
C666        H668   1.087       .  S
C669        C670   1.205       .  T
C671        C672   1.209       .  T
C673        C674   1.342       .  D
C673        H675   1.087   1_565  S
C674        H676   1.087       .  S
C677        C678   1.206       .  T
C679        C680   1.205       .  T
C681        C682   1.205       .  T
C683        C684   1.341   1_655  D
C683        H685   1.087       .  S
C684        H686   1.087       .  S
C687        C688   1.209       .  T
C689        C690   1.207       .  T
C691        C692   1.207       .  T
C693        C694   1.342   1_554  D
C693        H695   1.087       .  S
C694        H696   1.087       .  S
C697        C698   1.206       .  T
C699        C700   1.341   1_655  D
C699        H701   1.087       .  S
C700        H702   1.087       .  S
C703        C704   1.207       .  T
C705        C706   1.341       .  D
C705        H707   1.087       .  S
C706        H708   1.087       .  S
C709        C710   1.206       .  T
C711        C712   1.342       .  D
C711        H713   1.087       .  S
C712        H714   1.087       .  S
C715        C716   1.205       .  T
C717        C718   1.207       .  T
C719        C720   1.207       .  T
C721        C722   1.207       .  T
C723        C724   1.207       .  T
C725        C726   1.206       .  T
C727        C728   1.206       .  T
C729        C730   1.341       .  D
C729        H731   1.087       .  S
C730        H732   1.087       .  S
C733        C734   1.208       .  T
C735        C736   1.206       .  T
C737        C738   1.341   1_554  D
C737        H739   1.087       .  S
C738        H740   1.087       .  S
C741        C742   1.205       .  T
C743        C744   1.205       .  T
C745        C746   1.341   1_455  D
C745        H747   1.087       .  S
C746        H748   1.087       .  S
C749        C750   1.206       .  T
C751        C752   1.342   1_565  D
C751        H753   1.087       .  S
C752        H754   1.087       .  S
C755        C756   1.206       .  T
C757        C758   1.206       .  T
C759        C760   1.342       .  D
C759        H761   1.087       .  S
C760        H762   1.087       .  S
C763        C764   1.206       .  T
C765        C766   1.205       .  T
C767        C768   1.205       .  T
C769        C770   1.208       .  T
C771        C772   1.205       .  T
C773        C774   1.206       .  T
C775        C776   1.205       .  T
C777        C778   1.208       .  T
C779        C780   1.206       .  T
C781        C782   1.207       .  T
C783        C784   1.343       .  D
C783        H785   1.087       .  S
C784        H786   1.087       .  S
C787        C788   1.205       .  T
C789        C790   1.206       .  T
C791        C792   1.342   1_556  D
C791        H793   1.087       .  S
C792        H794   1.087       .  S
C795        C796   1.207       .  T
C797        C798   1.208       .  T
C799        C800   1.207       .  T
C801        C802   1.208       .  T
C803        C804   1.206       .  T
C805        C806   1.341       .  D
C805        H807   1.087       .  S
C806        H808   1.087       .  S
C809        C810   1.204       .  T
C811        C812   1.341       .  D
C811        H813   1.087       .  S
C812        H814   1.087       .  S
C815        C816   1.206       .  T
C817        C818   1.207       .  T
C819        C820   1.341       .  D
C819        H821   1.087       .  S
C820        H822   1.087       .  S
C823        C824   1.205       .  T
C825        C826   1.204       .  T
C827        C828   1.206       .  T
C829        C830   1.203       .  T
C831        C832   1.207       .  T
C833        C834   1.206       .  T
C835        C836   1.206       .  T
C837        C838   1.205       .  T
C839        C840   1.341       .  D
C839        H841   1.087       .  S
C840        H842   1.087       .  S
C843        C844   1.205       .  T
C845        C846   1.204       .  T
C847        C848   1.204       .  T
C849        C850   1.206       .  T
C851        C852   1.206       .  T
C853        C854   1.206       .  T
C855        C856   1.205       .  T
C857        C858   1.204       .  T
C859        C860   1.205       .  T
C861        C862   1.205       .  T
C863        C864   1.205       .  T
C865        C866   1.342       .  D
C865        H867   1.087   1_545  S
C866        H868   1.087       .  S
C869        C870   1.206       .  T
C871        C872   1.204       .  T
C873        C874   1.205       .  T
C875        C876   1.204       .  T
C877        C878   1.340       .  D
C877        H879   1.087       .  S
C878        H880   1.087       .  S
C881        C882   1.206       .  T
C883        C884   1.208       .  T
C885        C886   1.208       .  T
C887        C888   1.208       .  T
C889        C890   1.205       .  T
C891        C892   1.205       .  T
C893        C894   1.207       .  T
C895        C896   1.208       .  T
C897        C898   1.209       .  T
C899        C900   1.341       .  D
C899        H901   1.087       .  S
C900        H902   1.087       .  S
C903        C904   1.206       .  T
C905        C906   1.207       .  T
C907        C908   1.205       .  T
C909        C910   1.208       .  T
C911        C912   1.207       .  T
C913        C914   1.205       .  T
C915        C916   1.206       .  T
C917        C918   1.207       .  T
C919        C920   1.341       .  D
C919        H921   1.087       .  S
C920        H922   1.087       .  S
C923        C924   1.206       .  T
C925        C926   1.206       .  T
C927        C928   1.204       .  T
C929        C930   1.341   1_455  D
C929        H931   1.087       .  S
C930        H932   1.087       .  S
C933        C934   1.205       .  T
C935        C936   1.205       .  T
C937        C938   1.206       .  T
C939        C940   1.204       .  T
C941        C942   1.208       .  T
C943        C944   1.207       .  T
