geometry optimzed in LAMMPS
_audit_creation_date              2020-11-30 
_audit_creation_method            'lammps2cif' 
_symmetry_space_group_name_H-M    'P1' 
_symmetry_Int_Tables_number       1 
_symmetry_cell_setting            triclinic 
loop_ 
_symmetry_equiv_pos_as_xyz 
  x,y,z 
_cell_length_a                    30.1371737 
_cell_length_b                    30.131076585151405 
_cell_length_c                    32.25926427069983 
_cell_angle_alpha                 90.33408970792708 
_cell_angle_beta                  89.59859810688405 
_cell_angle_gamma                 119.57918153962177 
loop_ 
_atom_site_label 
_atom_site_type_symbol 
_atom_site_fract_x 
_atom_site_fract_y 
_atom_site_fract_z 
_atom_site_charge 
C1          C  0.25863118  0.94540066  0.07106417     0.80000
N2          N  0.30309857  0.99003659  0.07506634    -0.78300
C3          C  0.30534393  0.03516817  0.06715839     0.82500
N4          N  0.26249437  0.03536602  0.05535970    -0.78200
C5          C  0.21769851  0.99139374  0.05130340     0.82600
N6          N  0.21551443  0.94572405  0.05858164    -0.79900
C7          C  0.61595092  0.45052698  0.17622481     0.80000
N8          N  0.64693286  0.44846292  0.20640700    -0.78300
C9          C  0.65134489  0.40536291  0.20983658     0.82500
N10         N  0.62423430  0.36535940  0.18424205    -0.78200
C11         C  0.59335079  0.36670545  0.15492533     0.82600
N12         N  0.58942471  0.40930355  0.15115900    -0.79900
C13         C  0.17164885  0.26029974  0.13143922     0.80000
N14         N  0.16932871  0.22899787  0.09950277    -0.78300
C15         C  0.13282402  0.17853089  0.10018052     0.82500
N16         N  0.09831537  0.16061504  0.13136859    -0.78200
C17         C  0.09856038  0.19144586  0.16200877     0.82600
N18         N  0.13556574  0.24120743  0.16199798    -0.79900
C19         C  0.67925241  0.11117511  0.21497813     0.80000
N20         N  0.67991983  0.15502461  0.22768722    -0.78300
C21         C  0.72475927  0.19538475  0.24129144     0.82500
N22         N  0.76707526  0.19052641  0.24336800    -0.78200
C23         C  0.76641257  0.14709437  0.23174902     0.82600
N24         N  0.72251496  0.10780356  0.21707338    -0.79900
C25         C  0.00506969  0.52452131  0.22813026     0.80000
N26         N  0.96324888  0.48267808  0.24471133    -0.78300
C27         C  0.92109219  0.48659717  0.25522290     0.82500
N28         N  0.92204743  0.53148132  0.24983921    -0.78200
C29         C  0.96299439  0.57259252  0.23411148     0.82600
N30         N  0.00427188  0.56880027  0.22292914    -0.79900
C31         C  0.85266226  0.87502286  0.11187348     0.80000
N32         N  0.86595706  0.84869376  0.13832778    -0.78300
C33         C  0.91387315  0.85574698  0.13845050     0.82500
N34         N  0.94900706  0.89021894  0.11237476    -0.78200
C35         C  0.93690498  0.91652840  0.08532759     0.82600
N36         N  0.88800453  0.90844323  0.08425421    -0.79900
C37         C  0.44859588  0.74766999  0.14976621     0.02100
C38         C  0.39456828  0.71906321  0.14899928     0.02100
C39         C  0.36922159  0.66514402  0.15230970     0.02100
C40         C  0.39796729  0.63932677  0.15148127     0.02100
C41         C  0.45215063  0.66774354  0.15056073     0.02100
C42         C  0.47727486  0.72184651  0.14900050     0.02100
O43         O  0.66768340  0.35011610  0.24957888    -0.78700
C44         C  0.72939168  0.24328723  0.25813575     0.82400
O45         O  0.65244941  0.29267753  0.39143969    -0.79800
O46         O  0.82228832  0.31755318  0.36213324    -0.81300
O47         O  0.83821955  0.45704564  0.27950899    -0.81100
O48         O  0.71670790  0.43337225  0.26226163    -0.79700
Zn49       Zn  0.68395541  0.30854365  0.28915383     1.55700
O50         O  0.86650405  0.40119147  0.28158647    -0.81100
Cd51       Cd  0.76670124  0.42828279  0.30513324     1.59700
Cd52       Cd  0.72777937  0.34782148  0.38080081     1.59600
O53         O  0.77593431  0.47488764  0.35659945    -0.81100
O54         O  0.74432997  0.35557331  0.32045022    -1.91600
Cd55       Cd  0.80103583  0.33975521  0.30859931     1.59900
O56         O  0.74241952  0.41688687  0.40685375    -0.81100
O57         O  0.77294956  0.27542338  0.27251224    -0.79700
C58         C  0.61685756  0.26569780  0.36612739     0.82800
C59         C  0.68037667  0.39666922  0.24257770     0.82500
O60         O  0.69137500  0.25091288  0.26046040    -0.78700
C61         C  0.87297568  0.44526682  0.27280586     0.83300
O62         O  0.62335639  0.27012034  0.32705127    -0.78800
C63         C  0.76266965  0.46296853  0.39430300     0.83400
C64         C  0.80750944  0.31402730  0.39961896     0.83800
O65         O  0.77312547  0.32454465  0.41092732    -0.81200
C66         C  0.63494215  0.82389228  0.50659526     0.80000
N67         N  0.60166361  0.79414681  0.53710049    -0.78300
C68         C  0.55411794  0.78949053  0.53924799     0.82500
N69         N  0.54140220  0.81531527  0.51211531    -0.78200
C70         C  0.57394522  0.84513461  0.48238742     0.82600
N71         N  0.62066277  0.84926638  0.47981731    -0.79900
C72         C  0.48459321  0.18063650  0.40377325     0.80000
N73         N  0.48587830  0.13644028  0.40760804    -0.78300
C74         C  0.52888704  0.13458348  0.39851822     0.82500
N75         N  0.57085977  0.17757466  0.38579184    -0.78200
C76         C  0.57036325  0.22202131  0.38191251     0.82600
N77         N  0.52688322  0.22379976  0.39042949    -0.79900
C78         C  0.32127999  0.43554913  0.55770921     0.80000
N79         N  0.32073335  0.47879355  0.57135885    -0.78300
C80         C  0.36501536  0.51901629  0.58655619     0.82500
N81         N  0.40750541  0.51455844  0.58866926    -0.78200
C82         C  0.40804279  0.47211200  0.57617544     0.82600
N83         N  0.36499605  0.43306957  0.56022319    -0.79900
C84         C  0.80910137  0.58548007  0.45318667     0.80000
N85         N  0.77337555  0.56883782  0.48389964    -0.78300
C86         C  0.73531856  0.51967852  0.48549558     0.82500
N87         N  0.73342303  0.48664249  0.45608056    -0.78200
C88         C  0.76805614  0.50202329  0.42481975     0.82600
N89         N  0.80592140  0.55200748  0.42283546    -0.79900
C90         C  0.23704032  0.76540473  0.53305295     0.80000
N91         N  0.19372959  0.71993150  0.52793237    -0.78300
C92         C  0.19154808  0.67593483  0.53973009     0.82500
N93         N  0.23326489  0.67762253  0.55625631    -0.78200
C94         C  0.27710225  0.72206951  0.56178761     0.82600
N95         N  0.27914741  0.76697644  0.55081295    -0.79900
C96         C  0.87505556  0.26118139  0.46045689     0.80000
N97         N  0.89848819  0.29936783  0.48874750    -0.78300
C98         C  0.89072955  0.34007869  0.48869668     0.82500
N99         N  0.85842403  0.34156949  0.46070657    -0.78200
C100        C  0.83552194  0.30464461  0.43191238     0.82600
N101        N  0.84494981  0.26479697  0.43071197    -0.79900
C102        C  0.01248634  0.99076471  0.47605008     0.02100
C103        C  0.03985584  0.96404311  0.47193855     0.02100
C104        C  0.09374575  0.99146259  0.47044153     0.02100
C105        C  0.12017274  0.04568593  0.47005641     0.02100
C106        C  0.09314033  0.07297793  0.47502241     0.02100
C107        C  0.03887744  0.04499140  0.47663996     0.02100
C108        C  0.56890225  0.62918053  0.78296514     0.80000
N109        N  0.53801058  0.63159358  0.75309775    -0.78300
C110        C  0.52743290  0.67091441  0.75394391     0.82500
N111        N  0.54900931  0.70768542  0.78322371    -0.78200
C112        C  0.58107660  0.70671554  0.81176401     0.82600
N113        N  0.59046010  0.66718775  0.81161225    -0.79900
C114        C  0.91618784  0.12579409  0.89611732     0.80000
N115        N  0.95855243  0.12561450  0.91122077    -0.78300
C116        C  0.95570153  0.07987787  0.92011156     0.82500
N117        N  0.91094023  0.03598771  0.91457446    -0.78200
C118        C  0.86910326  0.03608565  0.90011831     0.82600
N119        N  0.87210184  0.08114774  0.89074430    -0.79900
C120        C  0.49673427  0.96155633  0.73707953     0.80000
N121        N  0.49850050  0.91946427  0.72288502    -0.78300
C122        C  0.45426107  0.87736320  0.71076051     0.82500
N123        N  0.40991252  0.87820670  0.71219672    -0.78200
C124        C  0.40786062  0.91960615  0.72585998     0.82600
N125        N  0.45140376  0.96110389  0.73861161    -0.79900
C126        C  0.99163299  0.80857676  0.84794010     0.80000
N127        N  0.99476322  0.84378675  0.87676835    -0.78300
C128        C  0.03772128  0.89098289  0.87785786     0.82500
N129        N  0.07665981  0.90138295  0.85142917    -0.78200
C130        C  0.07428881  0.86690343  0.82347725     0.82600
N131        N  0.03163842  0.82056137  0.82185608    -0.79900
C132        C  0.33442759  0.20975343  0.87979681     0.80000
N133        N  0.33750542  0.25628077  0.87973314    -0.78300
C134        C  0.29815380  0.26206512  0.89358494     0.82500
N135        N  0.25510549  0.22066079  0.90684164    -0.78200
C136        C  0.25052490  0.17367483  0.90706345     0.82600
N137        N  0.29086953  0.16796859  0.89403735    -0.79900
C138        C  0.18685309  0.56352924  0.79341010     0.80000
N139        N  0.21831683  0.59462989  0.76264944    -0.78300
C140        C  0.26827041  0.60588415  0.76139976     0.82500
N141        N  0.28534661  0.58441353  0.78918136    -0.78200
C142        C  0.25414984  0.55210232  0.81850355     0.82600
N143        N  0.20525279  0.54222863  0.82051148    -0.79900
C144        C  0.77823866  0.43213386  0.81003035     0.02100
C145        C  0.72418085  0.40406334  0.80667651     0.02100
C146        C  0.69813947  0.34991578  0.80812984     0.02100
C147        C  0.72648893  0.32391141  0.80947767     0.02100
C148        C  0.78016980  0.35167154  0.81379696     0.02100
C149        C  0.80640277  0.40587505  0.81271673     0.02100
O150        O  0.98780634  0.02857625  0.94421886    -0.78700
C151        C  0.04775875  0.93079585  0.90926505     0.82400
O152        O  0.02312747  0.97579427  0.07182163    -0.79800
O153        O  0.17189772  0.99675141  0.99519983    -0.81300
O154        O  0.17036340  0.14408464  0.93918707    -0.81100
O155        O  0.04158657  0.11240428  0.94652067    -0.79700
Zn156      Zn  0.01616292  0.98822049  0.97008927     1.55700
O157        O  0.19512547  0.08648763  0.92744082    -0.81100
Cd158      Cd  0.10396456  0.10994341  0.97473457     1.59700
Cd159      Cd  0.09345020  0.02873214  0.04721775     1.59600
O160        O  0.12361821  0.15387269  0.02909605    -0.81100
O161        O  0.08631262  0.03708472  0.98683528    -1.91600
Cd162      Cd  0.13524156  0.02200455  0.95602578     1.59900
O163        O  0.11536321  0.09740994  0.07737499    -0.81100
O164        O  0.09462475  0.96380934  0.91481445    -0.79700
C165        C  0.97793431  0.95138435  0.05727540     0.82800
C166        C  0.99805943  0.07431224  0.93745259     0.82500
O167        O  0.01204028  0.93279243  0.92927215    -0.78700
C168        C  0.20266110  0.13191837  0.92491262     0.83300
O169        O  0.96882974  0.95345913  0.01911098    -0.78800
C170        C  0.12553458  0.14221084  0.06672879     0.83400
C171        C  0.17506030  0.99578102  0.03442965     0.83800
O172        O  0.14831882  0.00695168  0.05866307    -0.81200
O173        O  0.48350409  0.77611012  0.57925946    -0.78700
C174        C  0.31811368  0.71814520  0.58361958     0.82400
O175        O  0.44104578  0.79377512  0.72054053    -0.79800
O176        O  0.29367233  0.62144192  0.69077665    -0.81300
O177        O  0.41769584  0.60317542  0.60843183    -0.81100
O178        O  0.51533415  0.72451015  0.59168819    -0.79700
Zn179      Zn  0.42561731  0.76155212  0.61834457     1.55700
O180        O  0.33435768  0.57670293  0.60944414    -0.81100
Cd181      Cd  0.45923559  0.67495235  0.63401374     1.59700
Cd182      Cd  0.41776364  0.71666352  0.70962316     1.59600
O183        O  0.49423804  0.66396797  0.68571429    -0.81100
O184        O  0.41000097  0.69960545  0.64921675    -1.91600
Cd185      Cd  0.33809558  0.64342002  0.63671272     1.59900
O186        O  0.46970254  0.69871061  0.73572000    -0.81100
O187        O  0.30560222  0.67452360  0.59905475    -0.79700
C188        C  0.45103856  0.82993937  0.69519903     0.82800
C189        C  0.51629036  0.76174002  0.57218790     0.82500
O190        O  0.36308514  0.75601716  0.58750607    -0.78700
C191        C  0.37159242  0.56883489  0.60157863     0.83300
O192        O  0.44843834  0.82289048  0.65615267    -0.78800
C193        C  0.49471619  0.67703974  0.72339989     0.83400
C194        C  0.30435374  0.63591259  0.72839834     0.83800
O195        O  0.34850229  0.67115482  0.73940939    -0.81200
C196        C  0.02181589  0.53307830  0.73317737    -0.18000
C197        C  0.96850104  0.51017785  0.73601828    -0.20200
C198        C  0.94267586  0.48531674  0.77252123     0.20500
C199        C  0.97099516  0.48432528  0.80676445    -0.03100
C200        C  0.02479255  0.50739082  0.80387167    -0.06200
C201        C  0.05044403  0.53156261  0.76678105     0.20700
C202        C  0.05273729  0.50530828  0.83786859     0.18900
C203        C  0.02711094  0.48106431  0.87457797    -0.17700
C204        C  0.97400312  0.45839986  0.87747736    -0.19900
C205        C  0.94553042  0.45953876  0.84370901     0.20400
C206        C  0.89204850  0.43561993  0.84604835    -0.32900
C207        C  0.86344495  0.43498865  0.81162637     0.01100
C208        C  0.88907173  0.46057285  0.77516525    -0.24200
C209        C  0.10390765  0.55238508  0.76363005    -0.28800
C210        C  0.13178970  0.54874759  0.79706975     0.06800
C211        C  0.10568645  0.52621503  0.83434466    -0.27500
H212        H  0.04059763  0.55140825  0.70445668     0.11500
H213        H  0.94738025  0.51143610  0.70943545     0.12600
H214        H  0.04813438  0.47910321  0.90095754     0.11700
H215        H  0.95513668  0.43946949  0.90600625     0.10900
H216        H  0.87254515  0.41686308  0.87442760     0.16300
H217        H  0.86706221  0.46022806  0.74860377     0.12200
H218        H  0.12333254  0.56947695  0.73478031     0.15100
H219        H  0.12647491  0.52362304  0.86065067     0.14900
C220        C  0.51688048  0.27251234  0.76251913    -0.18000
C221        C  0.46480551  0.24965230  0.77252884    -0.20200
C222        C  0.44793323  0.23597234  0.81363343     0.20500
C223        C  0.48373913  0.24336429  0.84463276    -0.03100
C224        C  0.53642727  0.26718930  0.83464272    -0.06200
C225        C  0.55323302  0.28264602  0.79348434     0.20700
C226        C  0.57239662  0.27755126  0.86622280     0.18900
C227        C  0.55545151  0.26187096  0.90696438    -0.17700
C228        C  0.50340169  0.23813610  0.91679927    -0.19900
C229        C  0.46728670  0.22976844  0.88609227     0.20400
C230        C  0.41570661  0.21153352  0.89663042    -0.32900
C231        C  0.38058628  0.20781249  0.86647110     0.01100
C232        C  0.39663893  0.21845584  0.82480747    -0.24200
C233        C  0.60600559  0.30908747  0.78437052    -0.28800
C234        C  0.64192019  0.32075518  0.81611080     0.06800
C235        C  0.62470847  0.30465116  0.85680157    -0.27500
H236        H  0.52884288  0.28363930  0.73072524     0.11500
H237        H  0.43782643  0.24395577  0.74824549     0.12600
H238        H  0.58260616  0.26909232  0.93148483     0.11700
H239        H  0.49155140  0.22784136  0.94873607     0.10900
H240        H  0.40393104  0.20487865  0.92889397     0.16300
H241        H  0.37000267  0.21688952  0.80163936     0.12200
H242        H  0.61919324  0.32130313  0.75295854     0.15100
H243        H  0.65241476  0.31378566  0.88127428     0.14900
C244        C  0.37413380  0.43830753  0.84113912    -0.18000
C245        C  0.36826153  0.48023110  0.83129806    -0.20200
C246        C  0.32532084  0.48268626  0.84531149     0.20500
C247        C  0.28939741  0.44405562  0.87135716    -0.03100
C248        C  0.29542879  0.40191021  0.88140845    -0.06200
C249        C  0.33721273  0.39831774  0.86520759     0.20700
C250        C  0.25810065  0.36203482  0.90568666     0.18900
C251        C  0.21658990  0.36577672  0.92153103    -0.17700
C252        C  0.21041386  0.40737852  0.91129943    -0.19900
C253        C  0.24584448  0.44594494  0.88531384     0.20400
C254        C  0.23676549  0.48446940  0.87087710    -0.32900
C255        C  0.27034299  0.52072275  0.84225381     0.01100
C256        C  0.31597066  0.52122823  0.83148324    -0.24200
C257        C  0.33977376  0.35361738  0.87138870    -0.28800
C258        C  0.30066860  0.31230449  0.89303787     0.06800
C259        C  0.26129783  0.31781640  0.91171859    -0.27500
H260        H  0.40664186  0.43635234  0.82874854     0.11500
H261        H  0.39633642  0.50980158  0.81145098     0.12600
H262        H  0.18785647  0.33558034  0.94052458     0.11700
H263        H  0.17699846  0.40848351  0.92252393     0.10900
H264        H  0.20186138  0.48413778  0.87983218     0.16300
H265        H  0.34248369  0.54928052  0.80978922     0.12200
H266        H  0.37065854  0.35001910  0.85739466     0.15100
H267        H  0.23155838  0.28666672  0.92932106     0.14900
C268        C  0.88870312  0.63638253  0.90848958    -0.18000
C269        C  0.86126875  0.58333594  0.90252746    -0.20200
C270        C  0.84566732  0.56251836  0.86268090     0.20500
C271        C  0.85674852  0.59556480  0.82861717    -0.03100
C272        C  0.88469009  0.64917801  0.83462280    -0.06200
C273        C  0.90128621  0.66977314  0.87470965     0.20700
C274        C  0.89766950  0.68206121  0.80026762     0.18900
C275        C  0.88105978  0.66132364  0.76054762    -0.17700
C276        C  0.85288382  0.60838339  0.75469173    -0.19900
C277        C  0.84112273  0.57508661  0.78837711     0.20400
C278        C  0.81491638  0.52179844  0.78243730    -0.32900
C279        C  0.80483348  0.48874712  0.81612112     0.01100
C280        C  0.81998054  0.50935873  0.85617320    -0.24200
C281        C  0.93225651  0.72308525  0.87993051    -0.28800
C282        C  0.94773262  0.75575885  0.84536887     0.06800
C283        C  0.92909919  0.73490259  0.80587549    -0.27500
H284        H  0.90101100  0.65127857  0.93947477     0.11500
H285        H  0.85287246  0.55853776  0.92908045     0.12600
H286        H  0.89061866  0.68607817  0.73383177     0.11700
H287        H  0.84111453  0.59345460  0.72363710     0.10900
H288        H  0.80311652  0.50593418  0.75161593     0.16300
H289        H  0.81186834  0.48381291  0.88219022     0.12200
H290        H  0.94737207  0.73866141  0.91026342     0.15100
H291        H  0.94138083  0.75979731  0.77906944     0.14900
C292        C  0.58309477  0.09301167  0.84397979    -0.18000
C293        C  0.61473532  0.14451587  0.85422003    -0.20200
C294        C  0.64443961  0.17995735  0.82365134     0.20500
C295        C  0.64360328  0.16287249  0.78261309    -0.03100
C296        C  0.61225442  0.11069305  0.77240308    -0.06200
C297        C  0.58098045  0.07585556  0.80306242     0.20700
C298        C  0.61038196  0.09389569  0.73111663     0.18900
C299        C  0.64086075  0.12919078  0.70073014    -0.17700
C300        C  0.67160761  0.18085914  0.71077056    -0.19900
C301        C  0.67263024  0.19819611  0.75142947     0.20400
C302        C  0.70072663  0.25040219  0.76113054    -0.32900
C303        C  0.70038531  0.26782681  0.80156199     0.01100
C304        C  0.67355181  0.23232081  0.83301570    -0.24200
C305        C  0.54619215  0.02522065  0.79178105    -0.28800
C306        C  0.54273233  0.00875943  0.75041441     0.06800
C307        C  0.57601266  0.04282846  0.72050045    -0.27500
H308        H  0.55945036  0.06675451  0.86793781     0.11500
H309        H  0.61491891  0.15686964  0.88586130     0.12600
H310        H  0.63993147  0.11705722  0.66891230     0.11700
H311        H  0.69383718  0.20746511  0.68650526     0.10900
H312        H  0.72184860  0.27785239  0.73700052     0.16300
H313        H  0.67416890  0.24564160  0.86437937     0.12200
H314        H  0.51973458  0.99926493  0.81468261     0.15100
H315        H  0.57238143  0.03061360  0.68842034     0.14900
C316        C  0.22113798  0.81645134  0.72642151    -0.18000
C317        C  0.17393913  0.80841166  0.74080380    -0.20200
C318        C  0.16998622  0.84803504  0.76029724     0.20500
C319        C  0.21368958  0.89677532  0.76401111    -0.03100
C320        C  0.26140504  0.90475780  0.74985570    -0.06200
C321        C  0.26512462  0.86408252  0.73168933     0.20700
C322        C  0.30566208  0.95265015  0.75565946     0.18900
C323        C  0.30131543  0.99291205  0.77352324    -0.17700
C324        C  0.25388975  0.98509666  0.78731125    -0.19900
C325        C  0.21016900  0.93687711  0.78354241     0.20400
C326        C  0.16350104  0.92746543  0.80059019    -0.32900
C327        C  0.12039851  0.87823477  0.79904508     0.01100
C328        C  0.12359067  0.83913204  0.77769254    -0.24200
C329        C  0.31305095  0.87078553  0.72116279    -0.28800
C330        C  0.35772626  0.91706412  0.72982483     0.06800
C331        C  0.35364743  0.95856903  0.74551300    -0.27500
H332        H  0.22350213  0.78492307  0.71236794     0.11500
H333        H  0.14074773  0.77086959  0.73754870     0.12600
H334        H  0.33478869  0.03001305  0.77791744     0.11700
H335        H  0.25167294  0.01636455  0.80203922     0.10900
H336        H  0.16143348  0.95811293  0.81662856     0.16300
H337        H  0.09067658  0.80115179  0.77623233     0.12200
H338        H  0.31549539  0.83870133  0.70839619     0.15100
H339        H  0.38776660  0.99464678  0.75164927     0.14900
C340        C  0.87614403  0.26139375  0.77838839    -0.18000
C341        C  0.89780034  0.23167032  0.79051713    -0.20200
C342        C  0.89816413  0.21941188  0.83242249     0.20500
C343        C  0.87684922  0.23772806  0.86246843    -0.03100
C344        C  0.85433008  0.26712712  0.85015850    -0.06200
C345        C  0.85397265  0.27906055  0.80787543     0.20700
C346        C  0.83103526  0.28343982  0.88005552     0.18900
C347        C  0.83118597  0.27109845  0.92191989    -0.17700
C348        C  0.85361386  0.24219634  0.93410494    -0.19900
C349        C  0.87619232  0.22497400  0.90463041     0.20400
C350        C  0.89555455  0.19292952  0.91626583    -0.32900
C351        C  0.91491779  0.17286612  0.88631670     0.01100
C352        C  0.91694632  0.18698281  0.84456362    -0.24200
C353        C  0.83072737  0.30765718  0.79586545    -0.28800
C354        C  0.80725195  0.32359082  0.82562129     0.06800
C355        C  0.80731641  0.31112116  0.86751082    -0.27500
H356        H  0.87610672  0.26996531  0.74582256     0.11500
H357        H  0.91376098  0.21773607  0.76699847     0.12600
H358        H  0.81346010  0.28337311  0.94523529     0.11700
H359        H  0.85250838  0.23255256  0.96654249     0.10900
H360        H  0.89196412  0.18036920  0.94816390     0.16300
H361        H  0.92991472  0.16987359  0.82121822     0.12200
H362        H  0.83005649  0.31680243  0.76351163     0.15100
H363        H  0.78872199  0.32311153  0.89030631     0.14900
C364        C  0.62515361  0.53070153  0.86678596    -0.18000
C365        C  0.64787580  0.50016729  0.87034443    -0.20200
C366        C  0.65883289  0.48019046  0.83486593     0.20500
C367        C  0.64613911  0.49056086  0.79532736    -0.03100
C368        C  0.62301712  0.52141510  0.79173817    -0.06200
C369        C  0.61296983  0.54181444  0.82768762     0.20700
C370        C  0.61105899  0.53279936  0.75227373     0.18900
C371        C  0.62193974  0.51251461  0.71678302    -0.17700
C372        C  0.64491243  0.48194288  0.72033327    -0.19900
C373        C  0.65743952  0.47096024  0.75943184     0.20400
C374        C  0.68180894  0.44154999  0.76338766    -0.32900
C375        C  0.69498824  0.43176941  0.80274598     0.01100
C376        C  0.68304673  0.45080124  0.83828002    -0.24200
C377        C  0.59241643  0.57434157  0.82401369    -0.28800
C378        C  0.58187911  0.58753544  0.78492601     0.06800
C379        C  0.59006989  0.56553397  0.74907805    -0.27500
H380        H  0.61767385  0.54619689  0.89467068     0.11500
H381        H  0.65737335  0.49261228  0.90086782     0.12600
H382        H  0.61323944  0.52078457  0.68621031     0.11700
H383        H  0.65331246  0.46725448  0.69241437     0.10900
H384        H  0.69144050  0.42703751  0.73596672     0.16300
H385        H  0.69354986  0.44341612  0.86849210     0.12200
H386        H  0.58599646  0.59081708  0.85183273     0.15100
H387        H  0.58261135  0.57584731  0.71882738     0.14900
C388        C  0.69800817  0.93789965  0.83846366    -0.18000
C389        C  0.65580098  0.89115339  0.82795160    -0.20200
C390        C  0.65229769  0.84534269  0.84141714     0.20500
C391        C  0.69050536  0.84649664  0.86709744    -0.03100
C392        C  0.73297619  0.89368369  0.87786992    -0.06200
C393        C  0.73714719  0.93950361  0.86279518     0.20700
C394        C  0.77219033  0.89488189  0.90226780     0.18900
C395        C  0.76765493  0.84907765  0.91704841    -0.17700
C396        C  0.72569566  0.80221730  0.90605618    -0.19900
C397        C  0.68757688  0.80050446  0.88026504     0.20400
C398        C  0.64845831  0.75382870  0.86520352    -0.32900
C399        C  0.61263666  0.75281406  0.83692079     0.01100
C400        C  0.61303325  0.79851091  0.82731838    -0.24200
C401        C  0.78105966  0.98601681  0.87120340    -0.28800
C402        C  0.82115907  0.98738596  0.89417177     0.06800
C403        C  0.81594896  0.94171124  0.91033995    -0.27500
H404        H  0.70056987  0.97275124  0.82680658     0.11500
H405        H  0.62668051  0.89078267  0.80819839     0.12600
H406        H  0.79725636  0.84942704  0.93615528     0.11700
H407        H  0.72384489  0.76729638  0.91669911     0.10900
H408        H  0.64801160  0.71873846  0.87329751     0.16300
H409        H  0.58526782  0.79827562  0.80600803     0.12200
H410        H  0.78459426  0.02096387  0.85874732     0.15100
H411        H  0.84637784  0.94238586  0.92854099     0.14900
C412        C  0.95471187  0.17164407  0.39136773    -0.18000
C413        C  0.97999541  0.14335453  0.39436078    -0.20200
C414        C  0.98114633  0.12102645  0.43212377     0.20500
C415        C  0.95551494  0.12614993  0.46702181    -0.03100
C416        C  0.93048878  0.15519994  0.46413013    -0.06200
C417        C  0.93047873  0.17844579  0.42619042     0.20700
C418        C  0.90711919  0.16251186  0.49956975     0.18900
C419        C  0.90676895  0.13870763  0.53696593    -0.17700
C420        C  0.93078798  0.10918807  0.53964683    -0.19900
C421        C  0.95609063  0.10346533  0.50510195     0.20400
C422        C  0.98284218  0.07642973  0.50814013    -0.32900
C423        C  0.00951162  0.07250034  0.47374709     0.01100
C424        C  0.00816932  0.09441511  0.43580951    -0.24200
C425        C  0.90823677  0.20987436  0.42424053    -0.28800
C426        C  0.88770759  0.21968310  0.46007394     0.06800
C427        C  0.88641750  0.19517837  0.49739655    -0.27500
H428        H  0.95507602  0.18914564  0.36201958     0.11500
H429        H  0.99923926  0.13949767  0.36722882     0.12600
H430        H  0.88863778  0.14363646  0.56436995     0.11700
H431        H  0.93055014  0.09177557  0.56900270     0.10900
H432        H  0.98391961  0.05937490  0.53733899     0.16300
H433        H  0.02844293  0.09081099  0.40925314     0.12200
H434        H  0.90992862  0.22936642  0.39562146     0.15100
H435        H  0.87072423  0.20294326  0.52506922     0.14900
C436        C  0.19448707  0.89579527  0.57696204    -0.18000
C437        C  0.17165953  0.92535704  0.56809815    -0.20200
C438        C  0.15959382  0.93068762  0.52715326     0.20500
C439        C  0.17073320  0.90611878  0.49467901    -0.03100
C440        C  0.19391915  0.87627773  0.50364283    -0.06200
C441        C  0.20575571  0.87102146  0.54502692     0.20700
C442        C  0.20355986  0.85027004  0.47143757     0.18900
C443        C  0.19081120  0.85509693  0.43051375    -0.17700
C444        C  0.16820593  0.88495866  0.42158923    -0.19900
C445        C  0.15765175  0.91040212  0.45344383     0.20400
C446        C  0.13346712  0.93923358  0.44505230    -0.32900
C447        C  0.12238652  0.96365701  0.47748409     0.01100
C448        C  0.13576655  0.95941445  0.51827228    -0.24200
C449        C  0.22624016  0.83908258  0.55400496    -0.28800
C450        C  0.23407543  0.81149689  0.52229512     0.06800
C451        C  0.22336607  0.81792967  0.48102384    -0.27500
H452        H  0.20279679  0.89182427  0.60891657     0.11500
H453        H  0.16303334  0.94374897  0.59338477     0.12600
H454        H  0.19774619  0.83521447  0.40541198     0.11700
H455        H  0.15840253  0.88763761  0.38980421     0.10900
H456        H  0.12262428  0.94214901  0.41364661     0.16300
H457        H  0.12658743  0.97783973  0.54323275     0.12200
H458        H  0.23232619  0.83256508  0.58597203     0.15100
H459        H  0.22755451  0.79524516  0.45670583     0.14900
C460        C  0.09750693  0.49074128  0.56389488    -0.18000
C461        C  0.05380232  0.44316391  0.55928271    -0.20200
C462        C  0.01003119  0.43929857  0.54087208     0.20500
C463        C  0.00959377  0.48397969  0.52847314    -0.03100
C464        C  0.05380412  0.53189219  0.53273713    -0.06200
C465        C  0.09809064  0.53504502  0.54996485     0.20700
C466        C  0.05421186  0.57634256  0.51847686     0.18900
C467        C  0.00985656  0.57265102  0.50137494    -0.17700
C468        C  0.96590537  0.52509812  0.49725300    -0.19900
C469        C  0.96579721  0.48058469  0.51003411     0.20400
C470        C  0.92387787  0.43256573  0.50212314    -0.32900
C471        C  0.92606256  0.38780518  0.51050491     0.01100
C472        C  0.96805022  0.39143417  0.53208190    -0.24200
C473        C  0.14259622  0.58227821  0.55218281    -0.28800
C474        C  0.14377433  0.62664242  0.53721742     0.06800
C475        C  0.09922831  0.62349355  0.52083393    -0.27500
H476        H  0.13125746  0.49275429  0.57744563     0.11500
H477        H  0.05469829  0.40927874  0.56908232     0.12600
H478        H  0.00944874  0.60639886  0.49047585     0.11700
H479        H  0.93246699  0.52298626  0.48297827     0.10900
H480        H  0.89136296  0.43037233  0.48608167     0.16300
H481        H  0.96991300  0.35724928  0.53909359     0.12200
H482        H  0.17652950  0.58419247  0.56526983     0.15100
H483        H  0.09963435  0.65751803  0.50956968     0.14900
C484        C  0.94545518  0.79408006  0.53770548    -0.18000
C485        C  0.91353592  0.74124300  0.53478561    -0.20200
C486        C  0.89943257  0.71717713  0.49591387     0.20500
C487        C  0.91830688  0.74642345  0.45953689    -0.03100
C488        C  0.95050656  0.79999999  0.46248941    -0.06200
C489        C  0.96382943  0.82389148  0.50181310     0.20700
C490        C  0.96849246  0.82971385  0.42619530     0.18900
C491        C  0.95472441  0.80540441  0.38732541    -0.17700
C492        C  0.92296119  0.75229017  0.38440994    -0.19900
C493        C  0.90416358  0.72231951  0.42031503     0.20400
C494        C  0.87048575  0.66906035  0.41782002    -0.32900
C495        C  0.85015180  0.64002975  0.45415729     0.01100
C496        C  0.86571279  0.66454834  0.49295126    -0.24200
C497        C  0.99439029  0.87720796  0.50461585    -0.28800
C498        C  0.01158510  0.90712056  0.46867120     0.06800
C499        C  0.99899899  0.88317408  0.42952828    -0.27500
H500        H  0.95528404  0.81172318  0.56809678     0.11500
H501        H  0.89935819  0.71922057  0.56301929     0.12600
H502        H  0.96815976  0.82756076  0.35909953     0.11700
H503        H  0.91261241  0.73472880  0.35401043     0.10900
H504        H  0.85846777  0.65072878  0.38780837     0.16300
H505        H  0.85065269  0.64260963  0.52116033     0.12200
H506        H  0.00392477  0.89572815  0.53470772     0.15100
H507        H  0.01207478  0.90637511  0.40179001     0.14900
C508        C  0.13534906  0.21891724  0.56997515    -0.18000
C509        C  0.16533684  0.27050461  0.58091604    -0.20200
C510        C  0.20309228  0.30516667  0.55382996     0.20500
C511        C  0.20971901  0.28753029  0.51480764    -0.03100
C512        C  0.17917309  0.23528711  0.50364833    -0.06200
C513        C  0.14228882  0.20075897  0.53163371     0.20700
C514        C  0.18656277  0.21736951  0.46506475     0.18900
C515        C  0.22420692  0.25204475  0.43786819    -0.17700
C516        C  0.25485650  0.30348524  0.44912269    -0.19900
C517        C  0.24825409  0.32156443  0.48766999     0.20400
C518        C  0.28121098  0.37225584  0.50046317    -0.32900
C519        C  0.27626478  0.38981842  0.53999152     0.01100
C520        C  0.23606766  0.35628105  0.56600706    -0.24200
C521        C  0.11397237  0.14851304  0.52136438    -0.28800
C522        C  0.12133515  0.12985089  0.48323286     0.06800
C523        C  0.15710221  0.16502703  0.45483440    -0.27500
H524        H  0.10712643  0.19299336  0.59185332     0.11500
H525        H  0.15965680  0.28308390  0.61102335     0.12600
H526        H  0.23065767  0.23916652  0.40816603     0.11700
H527        H  0.28433678  0.32901178  0.42787188     0.10900
H528        H  0.31297577  0.39730232  0.48070214     0.16300
H529        H  0.23306419  0.36871882  0.59698565     0.12200
H530        H  0.08695544  0.12190754  0.54360952     0.15100
H531        H  0.16269772  0.15149911  0.42514645     0.14900
C532        C  0.64138250  0.56778747  0.58427837    -0.18000
C533        C  0.59393664  0.56110676  0.59671432    -0.20200
C534        C  0.54887964  0.51677659  0.58544925     0.20500
C535        C  0.55168838  0.47700469  0.56456358    -0.03100
C536        C  0.59952840  0.48361896  0.55225545    -0.06200
C537        C  0.64435509  0.53014683  0.56055858     0.20700
C538        C  0.60206297  0.44534274  0.52872859     0.18900
C539        C  0.55729090  0.39926704  0.52052505    -0.17700
C540        C  0.50984313  0.39279089  0.53259536    -0.19900
C541        C  0.50658472  0.43223598  0.55313808     0.20400
C542        C  0.45917594  0.42919688  0.55975392    -0.32900
C543        C  0.45640443  0.47065988  0.57708618     0.01100
C544        C  0.50121960  0.51308564  0.59200824    -0.24200
C545        C  0.69051813  0.53989067  0.54204326    -0.28800
C546        C  0.69204246  0.50402286  0.51477943     0.06800
C547        C  0.64851967  0.45546609  0.51077792    -0.27500
H548        H  0.67550580  0.60342096  0.59144205     0.11500
H549        H  0.59238058  0.59166918  0.61333794     0.12600
H550        H  0.55872638  0.36927864  0.50288979     0.11700
H551        H  0.47559840  0.35790554  0.52412210     0.10900
H552        H  0.42482494  0.39588368  0.54898383     0.16300
H553        H  0.49951270  0.54482091  0.60638309     0.12200
H554        H  0.72411705  0.57698645  0.54616821     0.15100
H555        H  0.64945976  0.42699198  0.49066932     0.14900
C556        C  0.35359209  0.16553378  0.50284719    -0.18000
C557        C  0.30167537  0.14420107  0.51265310    -0.20200
C558        C  0.26452055  0.12150555  0.48169711     0.20500
C559        C  0.28002373  0.12197648  0.44016245    -0.03100
C560        C  0.33241855  0.14414697  0.43019344    -0.06200
C561        C  0.36933385  0.16500305  0.46185248     0.20700
C562        C  0.34766162  0.14314868  0.38884890     0.18900
C563        C  0.31065158  0.12148215  0.35771789    -0.17700
C564        C  0.25880938  0.09934781  0.36761073    -0.19900
C565        C  0.24313308  0.09868217  0.40876609     0.20400
C566        C  0.19121444  0.07414004  0.41920001    -0.32900
C567        C  0.17557701  0.07308467  0.46044717     0.01100
C568        C  0.21220084  0.09728236  0.49157815    -0.24200
C569        C  0.42088119  0.18215863  0.45225946    -0.28800
C570        C  0.43570023  0.17894413  0.41146257     0.06800
C571        C  0.39929841  0.16097642  0.37975376    -0.27500
H572        H  0.38140638  0.18152080  0.52750887     0.11500
H573        H  0.29052916  0.14439968  0.54462756     0.12600
H574        H  0.32173813  0.12045340  0.32585470     0.11700
H575        H  0.23090470  0.08187702  0.34315596     0.10900
H576        H  0.16267906  0.05553494  0.39530253     0.16300
H577        H  0.19985891  0.09634416  0.52336154     0.12200
H578        H  0.44891969  0.19483474  0.47683964     0.15100
H579        H  0.41070891  0.15729670  0.34852832     0.14900
C580        C  0.78672403  0.87708183  0.41955884    -0.18000
C581        C  0.83981795  0.90306808  0.41506595    -0.20200
C582        C  0.87133476  0.91783029  0.45004632     0.20500
C583        C  0.84905728  0.90481862  0.49000193    -0.03100
C584        C  0.79529971  0.87836227  0.49454183    -0.06200
C585        C  0.76418256  0.86531427  0.45912001     0.20700
C586        C  0.77276811  0.86669586  0.53446290     0.18900
C587        C  0.80447672  0.88020113  0.56939749    -0.17700
C588        C  0.85776597  0.90619915  0.56490302    -0.19900
C589        C  0.88043897  0.91937745  0.52539439     0.20400
C590        C  0.93379667  0.94747809  0.52057051    -0.32900
C591        C  0.95595850  0.96143940  0.48086065     0.01100
C592        C  0.92464084  0.94602983  0.44576335    -0.24200
C593        C  0.71118854  0.84304627  0.46381099    -0.28800
C594        C  0.68838860  0.83400263  0.50339922     0.06800
C595        C  0.71924378  0.84413405  0.53868264    -0.27500
H596        H  0.76325426  0.86714315  0.39204960     0.11500
H597        H  0.85624025  0.91243115  0.38420642     0.12600
H598        H  0.78807801  0.87154799  0.60028118     0.11700
H599        H  0.88127735  0.91680826  0.59241520     0.10900
H600        H  0.95822334  0.95889244  0.54758700     0.16300
H601        H  0.94193428  0.95629514  0.41521454     0.12200
H602        H  0.68768654  0.83524684  0.43647477     0.15100
H603        H  0.70213418  0.83789432  0.56928003     0.14900
C604        C  0.46160280  0.91766141  0.46309039    -0.18000
C605        C  0.45585086  0.95945619  0.45269629    -0.20200
C606        C  0.49450866  0.00070917  0.43088130     0.20500
C607        C  0.53855803  0.99903142  0.41804784    -0.03100
C608        C  0.54447916  0.95698228  0.42871804    -0.06200
C609        C  0.50619782  0.91665903  0.45198960     0.20700
C610        C  0.58972108  0.95647804  0.41786304     0.18900
C611        C  0.62738480  0.99674645  0.39447914    -0.17700
C612        C  0.62132444  0.03829150  0.38358503    -0.19900
C613        C  0.57765396  0.04030760  0.39612196     0.20400
C614        C  0.57329182  0.08368556  0.38851692    -0.32900
C615        C  0.53059187  0.08662869  0.40293012     0.01100
C616        C  0.49070274  0.04436336  0.42305641    -0.24200
C617        C  0.51438784  0.87750682  0.46591627    -0.28800
C618        C  0.56117249  0.87896047  0.45834831     0.06800
C619        C  0.59773498  0.91729817  0.43263327    -0.27500
H620        H  0.43184884  0.88684005  0.48092851     0.11500
H621        H  0.42171325  0.96005960  0.46258354     0.12600
H622        H  0.66216703  0.99681085  0.38563016     0.11700
H623        H  0.65148559  0.06954911  0.36640354     0.10900
H624        H  0.60393908  0.11572990  0.37237998     0.16300
H625        H  0.45746623  0.04603938  0.43399234     0.12200
H626        H  0.48546507  0.84773043  0.48511438     0.15100
H627        H  0.63365361  0.91847693  0.42620085     0.14900
C628        C  0.70506294  0.83659598  0.19985577    -0.18000
C629        C  0.65226536  0.81375455  0.20557900    -0.20200
C630        C  0.61934610  0.79552359  0.17148499     0.20500
C631        C  0.63998517  0.80117375  0.13107607    -0.03100
C632        C  0.69343358  0.82478416  0.12525511    -0.06200
C633        C  0.72591308  0.84192413  0.15992488     0.20700
C634        C  0.71424247  0.82972955  0.08496819     0.18900
C635        C  0.68116179  0.81160021  0.05086022    -0.17700
C636        C  0.62816877  0.78794350  0.05664999    -0.19900
C637        C  0.60721289  0.78210767  0.09662095     0.20400
C638        C  0.55413525  0.75673085  0.10289259    -0.32900
C639        C  0.53352645  0.75093161  0.14303851     0.01100
C640        C  0.56619494  0.77086594  0.17715516    -0.24200
C641        C  0.77852118  0.86212861  0.15431335    -0.28800
C642        C  0.79957114  0.86550809  0.11459902     0.06800
C643        C  0.76743949  0.85061850  0.07980661    -0.27500
H644        H  0.72961511  0.84952399  0.22677972     0.11500
H645        H  0.63713681  0.80966598  0.23675514     0.12600
H646        H  0.69622724  0.81490896  0.01973344     0.11700
H647        H  0.60351270  0.77364613  0.02984689     0.10900
H648        H  0.52863486  0.74110543  0.07665893     0.16300
H649        H  0.55009018  0.76606328  0.20805125     0.12200
H650        H  0.80315326  0.87323458  0.18122140     0.15100
H651        H  0.78331106  0.85216630  0.04923882     0.14900
C652        C  0.17729971  0.56092719  0.26503908    -0.18000
C653        C  0.22909913  0.58387230  0.25441229    -0.20200
C654        C  0.24508975  0.59736611  0.21317345     0.20500
C655        C  0.20844741  0.58681663  0.18213092    -0.03100
C656        C  0.15602044  0.56353021  0.19288149    -0.06200
C657        C  0.14040554  0.55094591  0.23462988     0.20700
C658        C  0.11953392  0.55487940  0.16217102     0.18900
C659        C  0.13557471  0.56833298  0.12088673    -0.17700
C660        C  0.18739650  0.59097717  0.11019305    -0.19900
C661        C  0.22429092  0.60088993  0.14059844     0.20400
C662        C  0.27670532  0.62547586  0.13046417    -0.32900
C663        C  0.31330512  0.63642796  0.16147210     0.01100
C664        C  0.29713093  0.62218950  0.20263734    -0.24200
C665        C  0.08869222  0.53138938  0.24556986    -0.28800
C666        C  0.05255490  0.52497983  0.21541011     0.06800
C667        C  0.06814859  0.53568673  0.17365730    -0.27500
H668        H  0.16618166  0.55181027  0.29723217     0.11500
H669        H  0.25678688  0.59171790  0.27861478     0.12600
H670        H  0.10807486  0.56211092  0.09691495     0.11700
H671        H  0.19869618  0.60148439  0.07819933     0.10900
H672        H  0.28916995  0.63686109  0.09878091     0.16300
H673        H  0.32541028  0.63131495  0.22661303     0.12200
H674        H  0.07734357  0.52521022  0.27792905     0.15100
H675        H  0.04076751  0.53252114  0.15053809     0.14900
C676        C  0.86188400  0.70749450  0.23011998    -0.18000
C677        C  0.86891147  0.66728748  0.24328292    -0.20200
C678        C  0.91261393  0.66506134  0.23119524     0.20500
C679        C  0.95052486  0.70453723  0.20702196    -0.03100
C680        C  0.94363570  0.74518964  0.19406441    -0.06200
C681        C  0.89861022  0.74613102  0.20490816     0.20700
C682        C  0.98093160  0.78381170  0.16887658     0.18900
C683        C  0.02521667  0.78231010  0.15768540    -0.17700
C684        C  0.03191186  0.74184989  0.17034620    -0.19900
C685        C  0.99449487  0.70249104  0.19448294     0.20400
C686        C  0.99947360  0.66025127  0.20497501    -0.32900
C687        C  0.96084027  0.61978856  0.22747437     0.01100
C688        C  0.91820859  0.62313967  0.24153201    -0.24200
C689        C  0.89016598  0.78439691  0.18878986    -0.28800
C690        C  0.92622316  0.82152043  0.16200060     0.06800
C691        C  0.97234383  0.82206547  0.15363050    -0.27500
H692        H  0.82725050  0.70777939  0.23888950     0.11500
H693        H  0.83959268  0.63728794  0.26204187     0.12600
H694        H  0.05412492  0.81181247  0.13830271     0.11700
H695        H  0.06587779  0.74083205  0.16057798     0.10900
H696        H  0.03254303  0.65810673  0.19426222     0.16300
H697        H  0.88841493  0.59236082  0.25939454     0.12200
H698        H  0.85466913  0.78392675  0.19564677     0.15100
H699        H  0.00059743  0.85060518  0.13319483     0.14900
C700        C  0.52244401  0.95085682  0.24673697    -0.18000
C701        C  0.49142777  0.89875342  0.23800246    -0.20200
C702        C  0.49611728  0.87815010  0.20010597     0.20500
C703        C  0.53095399  0.91082538  0.17002023    -0.03100
C704        C  0.56230555  0.96347924  0.17884114    -0.06200
C705        C  0.55877132  0.98343680  0.21773407     0.20700
C706        C  0.59913514  0.99549427  0.14962858     0.18900
C707        C  0.60253721  0.97529587  0.11115050    -0.17400
C708        C  0.57118330  0.92337092  0.10226665    -0.19900
C709        C  0.53607480  0.89055084  0.13180984     0.20400
C710        C  0.50748260  0.83764689  0.12443476    -0.32900
C711        C  0.47471319  0.80451660  0.15513629     0.01100
C712        C  0.46815572  0.82527616  0.19240518    -0.24200
C713        C  0.59375469  0.03463704  0.22787732    -0.28800
C714        C  0.63269958  0.06561699  0.19987934     0.06800
C715        C  0.63405038  0.04622140  0.16038983    -0.27500
H716        H  0.51904155  0.96536939  0.27670620     0.11500
H717        H  0.46466267  0.87428766  0.26138276     0.12600
H718        H  0.63047830  0.99941632  0.08830140     0.11700
H719        H  0.57550018  0.90858649  0.07272562     0.10900
H720        H  0.51171950  0.82201345  0.09530922     0.16300
H721        H  0.44255958  0.79988817  0.21600040     0.12200
H722        H  0.59343996  0.04897086  0.25872758     0.15100
H723        H  0.66466829  0.06971088  0.13909098     0.14900
C724        C  0.31997688  0.48041426  0.06746392    -0.18000
C725        C  0.28880267  0.42726374  0.06442194    -0.20200
C726        C  0.26766158  0.39750471  0.10014575     0.20500
C727        C  0.27925400  0.42174176  0.13936768    -0.03100
C728        C  0.31120853  0.47530923  0.14247379    -0.06200
C729        C  0.33096834  0.50488330  0.10629124     0.20700
C730        C  0.32236442  0.49935175  0.18176810     0.18900
C731        C  0.30194058  0.46968026  0.21751051    -0.17700
C732        C  0.26991504  0.41686600  0.21440294    -0.19900
C733        C  0.25800534  0.39265166  0.17551653     0.20400
C734        C  0.22429374  0.34002010  0.17224106    -0.32900
C735        C  0.21140036  0.31535206  0.13335436     0.01100
C736        C  0.23420227  0.34429037  0.09737658    -0.24200
C737        C  0.36023796  0.55838337  0.10961990    -0.28800
C738        C  0.37077168  0.58249486  0.14867741     0.06800
C739        C  0.35267398  0.55269221  0.18461713    -0.27500
H740        H  0.33504415  0.50247574  0.03934922     0.11500
H741        H  0.28053653  0.40953808  0.03403342     0.12600
H742        H  0.31005267  0.48744223  0.24788019     0.11700
H743        H  0.25398332  0.39497309  0.24247658     0.10900
H744        H  0.20749778  0.31819437  0.20022707     0.16300
H745        H  0.22444410  0.32585874  0.06726867     0.12200
H746        H  0.37411545  0.58147617  0.08186944     0.15100
H747        H  0.36095512  0.57126815  0.21467214     0.14900
C748        C  0.86856788  0.06887839  0.18595651    -0.18000
C749        C  0.91652371  0.07418015  0.17781377    -0.20200
C750        C  0.96076680  0.11677078  0.19276394     0.20500
C751        C  0.95665086  0.15237259  0.21868659    -0.03100
C752        C  0.90821326  0.14676233  0.22721675    -0.06200
C753        C  0.86420570  0.10587263  0.20942730     0.20700
C754        C  0.90423582  0.18404035  0.25101078     0.18900
C755        C  0.94822920  0.22447022  0.26860667    -0.17700
C756        C  0.99635146  0.23037319  0.25969734    -0.19900
C757        C  0.00106669  0.19570518  0.23333682     0.20400
C758        C  0.04905859  0.20589537  0.21838103    -0.32900
C759        C  0.05279066  0.17328114  0.18890444     0.01100
C760        C  0.00889846  0.12670376  0.17911629    -0.24200
C761        C  0.81717323  0.10442979  0.21318195    -0.28800
C762        C  0.81372888  0.14375587  0.23394717     0.06800
C763        C  0.85693040  0.18205512  0.25451162    -0.27500
H764        H  0.83511063  0.03697288  0.17247132     0.11500
H765        H  0.91915261  0.04634179  0.15805968     0.12600
H766        H  0.94566460  0.25293045  0.28756838     0.11700
H767        H  0.02997102  0.26337705  0.27179169     0.10900
H768        H  0.08276415  0.24127653  0.22689741     0.16300
H769        H  0.01124885  0.10046565  0.15726577     0.12200
H770        H  0.78397828  0.07430244  0.19783215     0.15100
H771        H  0.85442655  0.21188175  0.27152318     0.14900
C772        C  0.54490853  0.53450669  0.09046533    -0.18000
C773        C  0.52000118  0.56307525  0.08698787    -0.20200
C774        C  0.51587857  0.58958438  0.12132556     0.20500
C775        C  0.53860055  0.58858283  0.15925714    -0.03100
C776        C  0.56390445  0.55965791  0.16276297    -0.06200
C777        C  0.56618842  0.53189163  0.12834881     0.20700
C778        C  0.58520930  0.55701690  0.20098709     0.18900
C779        C  0.58273883  0.58529396  0.23486197    -0.17700
C780        C  0.55786538  0.61413373  0.23135509    -0.19900
C781        C  0.53475945  0.61522252  0.19393838     0.20400
C782        C  0.50690611  0.64136719  0.19075211    -0.32900
C783        C  0.48289599  0.64115227  0.15332774     0.01100
C784        C  0.48853058  0.61610722  0.11856645    -0.24200
C785        C  0.58752173  0.50004934  0.13275469    -0.28800
C786        C  0.60582225  0.49412490  0.17133715     0.06800
C787        C  0.60630949  0.52437062  0.20506236    -0.27500
H788        H  0.54650200  0.51345143  0.06368758     0.11500
H789        H  0.50306278  0.56360226  0.05760675     0.12600
H790        H  0.59906610  0.58421444  0.26439575     0.11700
H791        H  0.55576359  0.63474908  0.25823781     0.10900
H792        H  0.50311549  0.66122706  0.21748596     0.16300
H793        H  0.47104636  0.61683263  0.08952151     0.12200
H794        H  0.58748039  0.47765315  0.10630368     0.15100
H795        H  0.62006100  0.52019087  0.23492611     0.14900
C796        C  0.26111352  0.82322598  0.16983214    -0.18000
C797        C  0.28253856  0.79315886  0.18166214    -0.20200
C798        C  0.31141555  0.78214620  0.15334175     0.20500
C799        C  0.31741956  0.80048252  0.11228044    -0.03100
C800        C  0.29544400  0.83043340  0.10024865    -0.06200
C801        C  0.26789081  0.84264034  0.12937256     0.20700
C802        C  0.30315041  0.85016161  0.05960312     0.18900
C803        C  0.33139822  0.83867582  0.03107221    -0.17700
C804        C  0.35307740  0.80905372  0.04294748    -0.19900
C805        C  0.34686233  0.79039042  0.08354912     0.20400
C806        C  0.37066684  0.76290063  0.09612878    -0.32900
C807        C  0.36572480  0.74531060  0.13702691     0.01100
C808        C  0.33549738  0.75435699  0.16548410    -0.24200
C809        C  0.25030245  0.87639848  0.11815528    -0.28800
C810        C  0.26012295  0.89796703  0.07829908     0.06800
C811        C  0.28518183  0.88352336  0.04890235    -0.27500
H812        H  0.24008457  0.83215942  0.19261465     0.11500
H813        H  0.27736758  0.77936450  0.21324445     0.12600
H814        H  0.33772410  0.85359634  0.99979995     0.11700
H815        H  0.37552106  0.80150928  0.02055174     0.10900
H816        H  0.39396769  0.75577646  0.07426537     0.16300
H817        H  0.33184817  0.74086830  0.19707089     0.12200
H818        H  0.23236765  0.88880049  0.14121357     0.15100
H819        H  0.29402721  0.90134795  0.01858980     0.14900
C820        C  0.40211729  0.22230466  0.05435204    -0.18000
C821        C  0.44315943  0.26929256  0.06618488    -0.20200
C822        C  0.48256607  0.27128363  0.09041058     0.20500
C823        C  0.48170744  0.22556156  0.10139195    -0.03100
C824        C  0.44026385  0.17817467  0.08955101    -0.06200
C825        C  0.39984291  0.17664002  0.06666277     0.20700
C826        C  0.43827749  0.13239690  0.10208536     0.18900
C827        C  0.47864514  0.13441745  0.12497651    -0.17700
C828        C  0.51975563  0.18142913  0.13673355    -0.19900
C829        C  0.52107738  0.22708018  0.12575604     0.20400
C830        C  0.55971819  0.27401976  0.14047555    -0.32900
C831        C  0.55896042  0.31947433  0.13201191     0.01100
C832        C  0.52137938  0.31798410  0.10556695    -0.24200
C833        C  0.35689519  0.12955761  0.05792431    -0.28800
C834        C  0.35346379  0.08388785  0.07211891     0.06800
C835        C  0.39504562  0.08550654  0.09299065    -0.27500
H836        H  0.37147551  0.22166912  0.03650812     0.11500
H837        H  0.44339191  0.30403934  0.05732033     0.12600
H838        H  0.47780760  0.09963936  0.13467981     0.11700
H839        H  0.54984739  0.18204294  0.15535038     0.10900
H840        H  0.58879977  0.27463772  0.16044199     0.16300
H841        H  0.52067670  0.35276708  0.09852740     0.12200
H842        H  0.32542768  0.12869653  0.04115966     0.15100
H843        H  0.39294563  0.05050245  0.10375722     0.14900
loop_ 
_geom_bond_atom_site_label_1 
_geom_bond_atom_site_label_2 
_geom_bond_distance 
_geom_bond_site_symmetry_2 
_ccdc_geom_bond_type 
C1            N2   1.357       .  A
C1            N6   1.368       .  A
C1          C810   1.472       .  S
N2            C3   1.353   1_565  A
C3            N4   1.352       .  A
C3          C834   1.477       .  S
N4            C5   1.353   1_545  A
C5            N6   1.366       .  A
C5          C171   1.464       .  S
C7            N8   1.376       .  A
C7           N12   1.361       .  A
C7          C786   1.498       .  S
N8            C9   1.374       .  A
C9           N10   1.352       .  A
C9           C59   1.481       .  S
N10          C11   1.346       .  A
C11          N12   1.352       .  A
C11         C831   1.479       .  S
C13          N14   1.371       .  A
C13          N18   1.364       .  A
C13         C735   1.493       .  S
N14          C15   1.368       .  A
C15          N16   1.350       .  A
C15         C170   1.471       .  S
N16          C17   1.350       .  A
C17          N18   1.357       .  A
C17         C759   1.483       .  S
C19          N20   1.372       .  A
C19          N24   1.359       .  A
C19         C714   1.480       .  S
N20          C21   1.370       .  A
C21          N22   1.356       .  A
C21          C44   1.480       .  S
N22          C23   1.350       .  A
C23          N24   1.353       .  A
C23         C762   1.480       .  S
C25          N26   1.376   1_455  A
C25          N30   1.358       .  A
C25         C666   1.479       .  S
N26          C27   1.373       .  A
C27          N28   1.351       .  A
C27          C61   1.480       .  S
N28          C29   1.343       .  A
C29          N30   1.351   1_655  A
C29         C687   1.472       .  S
C31          N32   1.358       .  A
C31          N36   1.371       .  A
C31         C642   1.482       .  S
N32          C33   1.352       .  A
C33          N34   1.349       .  A
C33         C690   1.474       .  S
N34          C35   1.349       .  A
C35          N36   1.371       .  A
C35         C165   1.471       .  S
C37         C711   1.500       .  S
C37          C38   1.418       .  A
C37          C42   1.420       .  A
C38         C807   1.489       .  S
C38          C39   1.418       .  A
C39         C663   1.494       .  S
C39          C40   1.422       .  A
C40         C738   1.492       .  S
C40          C41   1.421       .  A
C41         C783   1.498       .  S
C41          C42   1.420       .  A
C42         C639   1.486       .  S
O43          C59   1.280       .  A
O43         Zn49   2.018       .  S
C44          O60   1.277       .  A
C44          O57   1.274       .  A
O45          C58   1.274       .  A
O45         Cd52   2.075       .  S
O46          C64   1.272       .  A
O46         Cd55   2.072       .  S
O47          C61   1.278       .  A
O47         Cd51   2.054       .  S
O48          C59   1.277       .  A
O48         Cd51   2.113       .  S
Zn49         O60   2.070       .  S
Zn49         O62   2.017       .  S
Zn49         O54   1.950       .  S
O50          C61   1.277       .  A
O50         Cd55   2.114       .  S
Cd51         O53   2.097       .  S
Cd51         O54   2.012       .  S
Cd52         O56   2.076       .  S
Cd52         O65   2.068       .  S
Cd52         O54   1.993       .  S
O53          C63   1.275       .  A
O54         Cd55   2.022       .  S
Cd55         O57   2.049       .  S
O56          C63   1.277       .  A
C58          C76   1.460       .  S
C58          O62   1.272       .  A
C63          C88   1.477       .  S
C64         C100   1.459       .  S
C64          O65   1.275       .  A
C66          N67   1.374       .  A
C66          N71   1.361       .  A
C66         C594   1.487       .  S
N67          C68   1.370       .  A
C68          N69   1.351       .  A
C68         C189   1.477       .  S
N69          C70   1.347       .  A
C70          N71   1.353       .  A
C70         C618   1.480       .  S
C72          N73   1.358       .  A
C72          N77   1.365       .  A
C72         C570   1.468       .  S
N73          C74   1.355       .  A
C74          N75   1.352       .  A
C74         C615   1.479       .  S
N75          C76   1.353       .  A
C76          N77   1.364       .  A
C78          N79   1.381       .  A
C78          N83   1.359       .  A
C78         C519   1.491       .  S
N79          C80   1.377       .  A
C80          N81   1.354       .  A
C80         C191   1.492       .  S
N81          C82   1.346       .  A
C82          N83   1.352       .  A
C82         C543   1.480       .  S
C84          N85   1.360       .  A
C84          N89   1.371       .  A
C84         C495   1.492       .  S
N85          C86   1.355       .  A
C86          N87   1.352       .  A
C86         C546   1.482       .  S
N87          C88   1.354       .  A
C88          N89   1.370       .  A
C90          N91   1.358       .  A
C90          N95   1.375       .  A
C90         C450   1.478       .  S
N91          C92   1.351       .  A
C92          N93   1.347       .  A
C92         C474   1.475       .  S
N93          C94   1.351       .  A
C94          N95   1.372       .  A
C94         C174   1.482       .  S
C96          N97   1.360       .  A
C96         N101   1.366       .  A
C96         C426   1.476       .  S
N97          C98   1.357       .  A
C98          N99   1.350       .  A
C98         C471   1.478       .  S
N99         C100   1.348       .  A
C100        N101   1.364       .  A
C102        C591   1.490   1_455  S
C102        C103   1.414       .  A
C102        C107   1.421   1_565  A
C103        C498   1.495       .  S
C103        C104   1.413       .  A
C104        C447   1.489       .  S
C104        C105   1.421   1_565  A
C105        C567   1.483       .  S
C105        C106   1.423       .  A
C106        C522   1.513       .  S
C106        C107   1.423       .  A
C107        C423   1.485       .  S
C108        N109   1.371       .  A
C108        N113   1.360       .  A
C108        C378   1.489       .  S
N109        C110   1.371       .  A
C110        N111   1.352       .  A
C110        C193   1.474       .  S
N111        C112   1.350       .  A
C112        N113   1.353       .  A
C112        C399   1.478       .  S
C114        N115   1.372       .  A
C114        N119   1.357       .  A
C114        C351   1.474       .  S
N115        C116   1.370       .  A
C116        N117   1.356       .  A
C116        C166   1.481       .  S
N117        C118   1.349       .  A
C118        N119   1.351       .  A
C118        C402   1.478   1_545  S
C120        N121   1.371       .  A
C120        N125   1.360       .  A
C120        C306   1.478   1_565  S
N121        C122   1.368       .  A
C122        N123   1.350       .  A
C122        C188   1.469       .  S
N123        C124   1.350       .  A
C124        N125   1.355       .  A
C124        C330   1.479       .  S
C126        N127   1.375       .  A
C126        N131   1.361   1_655  A
C126        C282   1.487       .  S
N127        C128   1.372   1_655  A
C128        N129   1.352       .  A
C128        C151   1.480       .  S
N129        C130   1.347       .  A
C130        N131   1.354       .  A
C130        C327   1.479       .  S
C132        N133   1.359       .  A
C132        N137   1.373       .  A
C132        C231   1.482       .  S
N133        C134   1.354       .  A
C134        N135   1.350       .  A
C134        C258   1.478       .  S
N135        C136   1.353       .  A
C136        N137   1.372       .  A
C136        C168   1.483       .  S
C138        N139   1.372       .  A
C138        N143   1.360       .  A
C138        C210   1.495       .  S
N139        C140   1.371       .  A
C140        N141   1.352       .  A
C140        C194   1.469       .  S
N141        C142   1.349       .  A
C142        N143   1.353       .  A
C142        C255   1.479       .  S
C144        C279   1.496       .  S
C144        C145   1.422       .  A
C144        C149   1.421       .  A
C145        C375   1.488       .  S
C145        C146   1.420       .  A
C146        C234   1.495       .  S
C146        C147   1.417       .  A
C147        C303   1.492       .  S
C147        C148   1.415       .  A
C148        C354   1.489       .  S
C148        C149   1.421       .  A
C149        C207   1.496       .  S
O150        C166   1.275       .  A
O150       Zn156   1.988   1_645  S
C151        O167   1.278       .  A
C151        O164   1.277       .  A
O152        C165   1.278   1_455  A
O152       Cd159   2.078   1_565  S
O153        C171   1.271   1_556  A
O153       Cd162   2.063   1_565  S
O154        C168   1.280       .  A
O154       Cd158   2.080       .  S
O155        C166   1.280   1_455  A
O155       Cd158   2.128       .  S
Zn156       O167   2.076       .  S
Zn156       O169   2.036   1_456  S
Zn156       O161   1.965   1_565  S
O157        C168   1.275       .  A
O157       Cd162   2.102       .  S
Cd158       O160   2.096   1_556  S
Cd158       O161   2.027       .  S
Cd159       O163   2.074       .  S
Cd159       O172   2.094       .  S
Cd159       O161   1.992   1_554  S
O160        C170   1.275       .  A
O161       Cd162   2.001       .  S
Cd162       O164   2.054   1_545  S
O163        C170   1.277       .  A
C165        O169   1.272       .  A
C171        O172   1.277   1_565  A
O173        C189   1.278       .  A
O173       Zn179   2.011       .  S
C174        O190   1.276       .  A
C174        O187   1.278       .  A
O175        C188   1.276       .  A
O175       Cd182   2.097       .  S
O176        C194   1.276       .  A
O176       Cd185   2.092       .  S
O177        C191   1.278       .  A
O177       Cd181   2.061       .  S
O178        C189   1.277       .  A
O178       Cd181   2.110       .  S
Zn179       O190   2.070       .  S
Zn179       O192   2.027       .  S
Zn179       O184   1.961       .  S
O180        C191   1.280       .  A
O180       Cd185   2.141       .  S
Cd181       O183   2.093       .  S
Cd181       O184   2.017       .  S
Cd182       O186   2.076       .  S
Cd182       O195   2.079       .  S
Cd182       O184   1.998       .  S
O183        C193   1.274       .  A
O184       Cd185   2.027       .  S
Cd185       O187   2.061       .  S
O186        C193   1.277       .  A
C188        O192   1.273       .  A
C194        O195   1.277       .  A
C196        C197   1.404   1_455  A
C196        C201   1.405       .  A
C196        H212   1.083       .  S
C197        C198   1.405       .  A
C197        H213   1.083       .  S
C198        C208   1.408       .  A
C198        C199   1.410       .  A
C199        C205   1.414       .  A
C199        C200   1.417   1_655  A
C200        C202   1.408       .  A
C200        C201   1.415       .  A
C201        C209   1.414       .  A
C202        C211   1.401       .  A
C202        C203   1.405       .  A
C203        C204   1.399   1_455  A
C203        H214   1.084       .  S
C204        C205   1.402       .  A
C204        H215   1.084       .  S
C205        C206   1.405       .  A
C206        C207   1.405       .  A
C206        H216   1.083       .  S
C207        C208   1.409       .  A
C208        H217   1.084       .  S
C209        C210   1.410       .  A
C209        H218   1.084       .  S
C210        C211   1.412       .  A
C211        H219   1.084       .  S
C220        C221   1.404       .  A
C220        C225   1.405       .  A
C220        H236   1.083       .  S
C221        C222   1.406       .  A
C221        H237   1.083       .  S
C222        C232   1.410       .  A
C222        C223   1.410       .  A
C223        C229   1.414       .  A
C223        C224   1.418       .  A
C224        C226   1.410       .  A
C224        C225   1.415       .  A
C225        C233   1.413       .  A
C226        C235   1.404       .  A
C226        C227   1.404       .  A
C227        C228   1.400       .  A
C227        H238   1.084       .  S
C228        C229   1.404       .  A
C228        H239   1.084       .  S
C229        C230   1.409       .  A
C230        C231   1.405       .  A
C230        H240   1.085       .  S
C231        C232   1.409       .  A
C232        H241   1.084       .  S
C233        C234   1.407       .  A
C233        H242   1.084       .  S
C234        C235   1.406       .  A
C235        H243   1.084       .  S
C244        C245   1.398       .  A
C244        C249   1.403       .  A
C244        H260   1.084       .  S
C245        C246   1.404       .  A
C245        H261   1.084       .  S
C246        C256   1.399       .  A
C246        C247   1.410       .  A
C247        C253   1.412       .  A
C247        C248   1.409       .  A
C248        C250   1.410       .  A
C248        C249   1.413       .  A
C249        C257   1.402       .  A
C250        C259   1.397       .  A
C250        C251   1.403       .  A
C251        C252   1.397       .  A
C251        H262   1.084       .  S
C252        C253   1.403       .  A
C252        H263   1.084       .  S
C253        C254   1.400       .  A
C254        C255   1.406       .  A
C254        H264   1.084       .  S
C255        C256   1.409       .  A
C256        H265   1.084       .  S
C257        C258   1.406       .  A
C257        H266   1.084       .  S
C258        C259   1.408       .  A
C259        H267   1.084       .  S
C268        C269   1.403       .  A
C268        C273   1.405       .  A
C268        H284   1.083       .  S
C269        C270   1.405       .  A
C269        H285   1.083       .  S
C270        C280   1.408       .  A
C270        C271   1.411       .  A
C271        C277   1.414       .  A
C271        C272   1.418       .  A
C272        C274   1.410       .  A
C272        C273   1.415       .  A
C273        C281   1.414       .  A
C274        C283   1.405       .  A
C274        C275   1.405       .  A
C275        C276   1.401       .  A
C275        H286   1.083       .  S
C276        C277   1.403       .  A
C276        H287   1.083       .  S
C277        C278   1.409       .  A
C278        C279   1.405       .  A
C278        H288   1.084       .  S
C279        C280   1.408       .  A
C280        H289   1.084       .  S
C281        C282   1.408       .  A
C281        H290   1.084       .  S
C282        C283   1.409       .  A
C283        H291   1.085       .  S
C292        C293   1.402       .  A
C292        C297   1.405       .  A
C292        H308   1.083       .  S
C293        C294   1.404       .  A
C293        H309   1.084       .  S
C294        C304   1.408       .  A
C294        C295   1.413       .  A
C295        C301   1.411       .  A
C295        C296   1.416       .  A
C296        C298   1.414       .  A
C296        C297   1.411       .  A
C297        C305   1.407       .  A
C298        C307   1.408       .  A
C298        C299   1.404       .  A
C299        C300   1.400       .  A
C299        H310   1.083       .  S
C300        C301   1.404       .  A
C300        H311   1.084       .  S
C301        C302   1.404       .  A
C302        C303   1.405       .  A
C302        H312   1.084       .  S
C303        C304   1.405       .  A
C304        H313   1.083       .  S
C305        C306   1.407       .  A
C305        H314   1.084   1_545  S
C306        C307   1.404       .  A
C307        H315   1.084       .  S
C316        C317   1.396       .  A
C316        C321   1.403       .  A
C316        H332   1.084       .  S
C317        C318   1.402       .  A
C317        H333   1.084       .  S
C318        C328   1.401       .  A
C318        C319   1.413       .  A
C319        C325   1.409       .  A
C319        C320   1.409       .  A
C320        C322   1.413       .  A
C320        C321   1.409       .  A
C321        C329   1.396       .  A
C322        C331   1.403       .  A
C322        C323   1.403       .  A
C323        C324   1.399       .  A
C323        H334   1.084   1_565  S
C324        C325   1.404       .  A
C324        H335   1.084   1_565  S
C325        C326   1.399       .  A
C326        C327   1.410       .  A
C326        H336   1.084       .  S
C327        C328   1.405       .  A
C328        H337   1.084       .  S
C329        C330   1.408       .  A
C329        H338   1.084       .  S
C330        C331   1.407       .  A
C331        H339   1.084       .  S
C340        C341   1.402       .  A
C340        C345   1.404       .  A
C340        H356   1.083       .  S
C341        C342   1.405       .  A
C341        H357   1.083       .  S
C342        C352   1.408       .  A
C342        C343   1.411       .  A
C343        C349   1.413       .  A
C343        C344   1.416       .  A
C344        C346   1.411       .  A
C344        C345   1.414       .  A
C345        C353   1.410       .  A
C346        C355   1.402       .  A
C346        C347   1.403       .  A
C347        C348   1.399       .  A
C347        H358   1.084       .  S
C348        C349   1.404       .  A
C348        H359   1.084       .  S
C349        C350   1.406       .  A
C350        C351   1.405       .  A
C350        H360   1.085       .  S
C351        C352   1.407       .  A
C352        H361   1.084       .  S
C353        C354   1.405       .  A
C353        H362   1.084       .  S
C354        C355   1.405       .  A
C355        H363   1.085       .  S
C364        C365   1.397       .  A
C364        C369   1.404       .  A
C364        H380   1.084       .  S
C365        C366   1.401       .  A
C365        H381   1.084       .  S
C366        C376   1.403       .  A
C366        C367   1.414       .  A
C367        C373   1.411       .  A
C367        C368   1.416       .  A
C368        C370   1.415       .  A
C368        C369   1.409       .  A
C369        C377   1.400       .  A
C370        C379   1.415       .  A
C370        C371   1.406       .  A
C371        C372   1.405       .  A
C371        H382   1.084       .  S
C372        C373   1.406       .  A
C372        H383   1.083       .  S
C373        C374   1.409       .  A
C374        C375   1.408       .  A
C374        H384   1.084       .  S
C375        C376   1.401       .  A
C376        H385   1.084       .  S
C377        C378   1.409       .  A
C377        H386   1.085       .  S
C378        C379   1.409       .  A
C379        H387   1.084       .  S
C388        C389   1.396       .  A
C388        C393   1.402       .  A
C388        H404   1.084       .  S
C389        C390   1.403       .  A
C389        H405   1.084       .  S
C390        C400   1.396       .  A
C390        C391   1.410       .  A
C391        C397   1.412       .  A
C391        C392   1.409       .  A
C392        C394   1.410       .  A
C392        C393   1.412       .  A
C393        C401   1.400       .  A
C394        C403   1.400       .  A
C394        C395   1.404       .  A
C395        C396   1.399       .  A
C395        H406   1.084       .  S
C396        C397   1.403       .  A
C396        H407   1.084       .  S
C397        C398   1.403       .  A
C398        C399   1.407       .  A
C398        H408   1.084       .  S
C399        C400   1.407       .  A
C400        H409   1.084       .  S
C401        C402   1.405       .  A
C401        H410   1.084   1_565  S
C402        C403   1.409       .  A
C403        H411   1.084       .  S
C412        C413   1.400       .  A
C412        C417   1.404       .  A
C412        H428   1.084       .  S
C413        C414   1.404       .  A
C413        H429   1.084       .  S
C414        C424   1.403   1_655  A
C414        C415   1.411       .  A
C415        C421   1.414       .  A
C415        C416   1.413       .  A
C416        C418   1.411       .  A
C416        C417   1.414       .  A
C417        C425   1.406       .  A
C418        C427   1.404       .  A
C418        C419   1.404       .  A
C419        C420   1.400       .  A
C419        H430   1.083       .  S
C420        C421   1.403       .  A
C420        H431   1.084       .  S
C421        C422   1.405       .  A
C422        C423   1.404   1_655  A
C422        H432   1.084       .  S
C423        C424   1.404       .  A
C424        H433   1.084       .  S
C425        C426   1.405       .  A
C425        H434   1.084       .  S
C426        C427   1.406       .  A
C427        H435   1.085       .  S
C436        C437   1.400       .  A
C436        C441   1.404       .  A
C436        H452   1.084       .  S
C437        C438   1.403       .  A
C437        H453   1.084       .  S
C438        C448   1.402       .  A
C438        C439   1.411       .  A
C439        C445   1.415       .  A
C439        C440   1.417       .  A
C440        C442   1.410       .  A
C440        C441   1.414       .  A
C441        C449   1.408       .  A
C442        C451   1.408       .  A
C442        C443   1.406       .  A
C443        C444   1.403       .  A
C443        H454   1.083       .  S
C444        C445   1.404       .  A
C444        H455   1.083       .  S
C445        C446   1.411       .  A
C446        C447   1.406       .  A
C446        H456   1.084       .  S
C447        C448   1.404       .  A
C448        H457   1.085       .  S
C449        C450   1.405       .  A
C449        H458   1.085       .  S
C450        C451   1.409       .  A
C451        H459   1.084       .  S
C460        C461   1.396       .  A
C460        C465   1.403       .  A
C460        H476   1.084       .  S
C461        C462   1.402       .  A
C461        H477   1.084       .  S
C462        C472   1.400   1_455  A
C462        C463   1.413       .  A
C463        C469   1.408   1_455  A
C463        C464   1.407       .  A
C464        C466   1.413       .  A
C464        C465   1.408       .  A
C465        C473   1.395       .  A
C466        C475   1.401       .  A
C466        C467   1.402       .  A
C467        C468   1.397   1_455  A
C467        H478   1.084       .  S
C468        C469   1.404       .  A
C468        H479   1.084       .  S
C469        C470   1.396       .  A
C470        C471   1.410       .  A
C470        H480   1.084       .  S
C471        C472   1.404       .  A
C472        H481   1.084       .  S
C473        C474   1.408       .  A
C473        H482   1.084       .  S
C474        C475   1.405       .  A
C475        H483   1.084       .  S
C484        C485   1.399       .  A
C484        C489   1.402       .  A
C484        H500   1.084       .  S
C485        C486   1.404       .  A
C485        H501   1.084       .  S
C486        C496   1.402       .  A
C486        C487   1.409       .  A
C487        C493   1.415       .  A
C487        C488   1.418       .  A
C488        C490   1.411       .  A
C488        C489   1.414       .  A
C489        C497   1.406       .  A
C490        C499   1.410       .  A
C490        C491   1.406       .  A
C491        C492   1.405       .  A
C491        H502   1.083       .  S
C492        C493   1.406       .  A
C492        H503   1.084       .  S
C493        C494   1.415       .  A
C494        C495   1.410       .  A
C494        H504   1.084       .  S
C495        C496   1.410       .  A
C496        H505   1.084       .  S
C497        C498   1.403   1_655  A
C497        H506   1.084   1_655  S
C498        C499   1.409   1_455  A
C499        H507   1.084   1_655  S
C508        C509   1.403       .  A
C508        C513   1.405       .  A
C508        H524   1.083       .  S
C509        C510   1.404       .  A
C509        H525   1.083       .  S
C510        C520   1.415       .  A
C510        C511   1.414       .  A
C511        C517   1.410       .  A
C511        C512   1.422       .  A
C512        C514   1.413       .  A
C512        C513   1.410       .  A
C513        C521   1.410       .  A
C514        C523   1.414       .  A
C514        C515   1.405       .  A
C515        C516   1.404       .  A
C515        H526   1.084       .  S
C516        C517   1.407       .  A
C516        H527   1.083       .  S
C517        C518   1.411       .  A
C518        C519   1.413       .  A
C518        H528   1.085       .  S
C519        C520   1.407       .  A
C520        H529   1.084       .  S
C521        C522   1.411       .  A
C521        H530   1.084       .  S
C522        C523   1.412       .  A
C523        H531   1.083       .  S
C532        C533   1.398       .  A
C532        C537   1.403       .  A
C532        H548   1.084       .  S
C533        C534   1.404       .  A
C533        H549   1.084       .  S
C534        C544   1.399       .  A
C534        C535   1.410       .  A
C535        C541   1.412       .  A
C535        C536   1.409       .  A
C536        C538   1.410       .  A
C536        C537   1.412       .  A
C537        C545   1.402       .  A
C538        C547   1.399       .  A
C538        C539   1.403       .  A
C539        C540   1.397       .  A
C539        H550   1.084       .  S
C540        C541   1.402       .  A
C540        H551   1.084       .  S
C541        C542   1.401       .  A
C542        C543   1.405       .  A
C542        H552   1.084       .  S
C543        C544   1.410       .  A
C544        H553   1.084       .  S
C545        C546   1.407       .  A
C545        H554   1.084       .  S
C546        C547   1.408       .  A
C547        H555   1.084       .  S
C556        C557   1.401       .  A
C556        C561   1.405       .  A
C556        H572   1.083       .  S
C557        C558   1.404       .  A
C557        H573   1.083       .  S
C558        C568   1.407       .  A
C558        C559   1.414       .  A
C559        C565   1.411       .  A
C559        C560   1.413       .  A
C560        C562   1.413       .  A
C560        C561   1.412       .  A
C561        C569   1.407       .  A
C562        C571   1.402       .  A
C562        C563   1.403       .  A
C563        C564   1.398       .  A
C563        H574   1.084       .  S
C564        C565   1.403       .  A
C564        H575   1.084       .  S
C565        C566   1.401       .  A
C566        C567   1.404       .  A
C566        H576   1.085       .  S
C567        C568   1.404       .  A
C568        H577   1.084       .  S
C569        C570   1.405       .  A
C569        H578   1.084       .  S
C570        C571   1.402       .  A
C571        H579   1.085       .  S
C580        C581   1.398       .  A
C580        C585   1.404       .  A
C580        H596   1.084       .  S
C581        C582   1.402       .  A
C581        H597   1.084       .  S
C582        C592   1.404       .  A
C582        C583   1.414       .  A
C583        C589   1.411       .  A
C583        C584   1.416       .  A
C584        C586   1.414       .  A
C584        C585   1.409       .  A
C585        C593   1.401       .  A
C586        C595   1.414       .  A
C586        C587   1.405       .  A
C587        C588   1.404       .  A
C587        H598   1.083       .  S
C588        C589   1.405       .  A
C588        H599   1.083       .  S
C589        C590   1.407       .  A
C590        C591   1.407       .  A
C590        H600   1.084       .  S
C591        C592   1.402       .  A
C592        H601   1.084       .  S
C593        C594   1.409       .  A
C593        H602   1.085       .  S
C594        C595   1.409       .  A
C595        H603   1.084       .  S
C604        C605   1.396       .  A
C604        C609   1.403       .  A
C604        H620   1.084       .  S
C605        C606   1.402   1_565  A
C605        H621   1.084       .  S
C606        C616   1.400       .  A
C606        C607   1.412   1_545  A
C607        C613   1.410   1_565  A
C607        C608   1.409       .  A
C608        C610   1.413       .  A
C608        C609   1.409       .  A
C609        C617   1.396       .  A
C610        C619   1.403       .  A
C610        C611   1.403       .  A
C611        C612   1.398   1_565  A
C611        H622   1.084       .  S
C612        C613   1.404       .  A
C612        H623   1.084       .  S
C613        C614   1.400       .  A
C614        C615   1.408       .  A
C614        H624   1.084       .  S
C615        C616   1.406       .  A
C616        H625   1.084       .  S
C617        C618   1.408       .  A
C617        H626   1.084       .  S
C618        C619   1.407       .  A
C619        H627   1.084       .  S
C628        C629   1.399       .  A
C628        C633   1.404       .  A
C628        H644   1.084       .  S
C629        C630   1.402       .  A
C629        H645   1.084       .  S
C630        C640   1.405       .  A
C630        C631   1.415       .  A
C631        C637   1.410       .  A
C631        C632   1.415       .  A
C632        C634   1.415       .  A
C632        C633   1.409       .  A
C633        C641   1.401       .  A
C634        C643   1.413       .  A
C634        C635   1.405       .  A
C635        C636   1.403       .  A
C635        H646   1.084       .  S
C636        C637   1.405       .  A
C636        H647   1.084       .  S
C637        C638   1.405       .  A
C638        C639   1.406       .  A
C638        H648   1.084       .  S
C639        C640   1.402       .  A
C640        H649   1.084       .  S
C641        C642   1.407       .  A
C641        H650   1.085       .  S
C642        C643   1.407       .  A
C643        H651   1.084       .  S
C652        C653   1.401       .  A
C652        C657   1.404       .  A
C652        H668   1.083       .  S
C653        C654   1.404       .  A
C653        H669   1.083       .  S
C654        C664   1.404       .  A
C654        C655   1.410       .  A
C655        C661   1.414       .  A
C655        C656   1.418       .  A
C656        C658   1.410       .  A
C656        C657   1.414       .  A
C657        C665   1.410       .  A
C658        C667   1.407       .  A
C658        C659   1.406       .  A
C659        C660   1.402       .  A
C659        H670   1.083       .  S
C660        C661   1.404       .  A
C660        H671   1.083       .  S
C661        C662   1.411       .  A
C662        C663   1.407       .  A
C662        H672   1.084       .  S
C663        C664   1.406       .  A
C664        H673   1.084       .  S
C665        C666   1.405       .  A
C665        H674   1.084       .  S
C666        C667   1.409       .  A
C667        H675   1.085       .  S
C676        C677   1.398       .  A
C676        C681   1.403       .  A
C676        H692   1.084       .  S
C677        C678   1.404       .  A
C677        H693   1.084       .  S
C678        C688   1.397       .  A
C678        C679   1.409       .  A
C679        C685   1.413       .  A
C679        C680   1.406       .  A
C680        C682   1.409       .  A
C680        C681   1.413       .  A
C681        C689   1.401       .  A
C682        C691   1.393       .  A
C682        C683   1.402   1_655  A
C683        C684   1.394       .  A
C683        H694   1.084       .  S
C684        C685   1.401   1_455  A
C684        H695   1.084       .  S
C685        C686   1.397       .  A
C686        C687   1.402       .  A
C686        H696   1.084   1_655  S
C687        C688   1.409       .  A
C688        H697   1.084       .  S
C689        C690   1.406       .  A
C689        H698   1.084       .  S
C690        C691   1.406       .  A
C691        H699   1.084   1_655  S
C700        C701   1.403       .  A
C700        C705   1.405       .  A
C700        H716   1.084       .  S
C701        C702   1.405       .  A
C701        H717   1.083       .  S
C702        C712   1.408       .  A
C702        C703   1.411       .  A
C703        C709   1.414       .  A
C703        C704   1.418       .  A
C704        C706   1.410       .  A
C704        C705   1.414       .  A
C705        C713   1.411   1_565  A
C706        C715   1.405   1_565  A
C706        C707   1.405       .  A
C707        C708   1.401       .  A
C707        H718   1.083       .  S
C708        C709   1.403       .  A
C708        H719   1.084       .  S
C709        C710   1.408       .  A
C710        C711   1.406       .  A
C710        H720   1.083       .  S
C711        C712   1.409       .  A
C712        H721   1.084       .  S
C713        C714   1.406       .  A
C713        H722   1.084       .  S
C714        C715   1.407       .  A
C715        H723   1.085       .  S
C724        C725   1.404       .  A
C724        C729   1.406       .  A
C724        H740   1.083       .  S
C725        C726   1.406       .  A
C725        H741   1.084       .  S
C726        C736   1.414       .  A
C726        C727   1.414       .  A
C727        C733   1.409       .  A
C727        C728   1.417       .  A
C728        C730   1.414       .  A
C728        C729   1.411       .  A
C729        C737   1.408       .  A
C730        C739   1.406       .  A
C730        C731   1.402       .  A
C731        C732   1.399       .  A
C731        H742   1.084       .  S
C732        C733   1.404       .  A
C732        H743   1.084       .  S
C733        C734   1.403       .  A
C734        C735   1.410       .  A
C734        H744   1.084       .  S
C735        C736   1.410       .  A
C736        H745   1.084       .  S
C737        C738   1.408       .  A
C737        H746   1.084       .  S
C738        C739   1.403       .  A
C739        H747   1.084       .  S
C748        C749   1.397       .  A
C748        C753   1.402       .  A
C748        H764   1.084       .  S
C749        C750   1.404       .  A
C749        H765   1.084       .  S
C750        C760   1.397   1_655  A
C750        C751   1.409       .  A
C751        C757   1.413   1_655  A
C751        C752   1.409       .  A
C752        C754   1.410       .  A
C752        C753   1.413       .  A
C753        C761   1.401       .  A
C754        C763   1.401       .  A
C754        C755   1.404       .  A
C755        C756   1.399       .  A
C755        H766   1.084       .  S
C756        C757   1.403   1_655  A
C756        H767   1.084   1_655  S
C757        C758   1.404       .  A
C758        C759   1.407       .  A
C758        H768   1.084       .  S
C759        C760   1.410       .  A
C760        H769   1.084       .  S
C761        C762   1.405       .  A
C761        H770   1.084       .  S
C762        C763   1.410       .  A
C763        H771   1.084       .  S
C772        C773   1.399       .  A
C772        C777   1.405       .  A
C772        H788   1.084       .  S
C773        C774   1.402       .  A
C773        H789   1.084       .  S
C774        C784   1.406       .  A
C774        C775   1.414       .  A
C775        C781   1.410       .  A
C775        C776   1.419       .  A
C776        C778   1.415       .  A
C776        C777   1.408       .  A
C777        C785   1.402       .  A
C778        C787   1.418       .  A
C778        C779   1.406       .  A
C779        C780   1.405       .  A
C779        H790   1.083       .  S
C780        C781   1.406       .  A
C780        H791   1.083       .  S
C781        C782   1.411       .  A
C782        C783   1.410       .  A
C782        H792   1.084       .  S
C783        C784   1.403       .  A
C784        H793   1.084       .  S
C785        C786   1.412       .  A
C785        H794   1.084       .  S
C786        C787   1.411       .  A
C787        H795   1.084       .  S
C796        C797   1.403       .  A
C796        C801   1.405       .  A
C796        H812   1.083       .  S
C797        C798   1.404       .  A
C797        H813   1.083       .  S
C798        C808   1.410       .  A
C798        C799   1.414       .  A
C799        C805   1.411       .  A
C799        C800   1.415       .  A
C800        C802   1.412       .  A
C800        C801   1.412       .  A
C801        C809   1.409       .  A
C802        C811   1.402       .  A
C802        C803   1.403       .  A
C803        C804   1.398       .  A
C803        H814   1.084   1_554  S
C804        C805   1.403       .  A
C804        H815   1.084       .  S
C805        C806   1.400       .  A
C806        C807   1.404       .  A
C806        H816   1.085       .  S
C807        C808   1.406       .  A
C808        H817   1.084       .  S
C809        C810   1.406       .  A
C809        H818   1.084       .  S
C810        C811   1.403       .  A
C811        H819   1.085       .  S
C820        C821   1.397       .  A
C820        C825   1.403       .  A
C820        H836   1.084       .  S
C821        C822   1.402       .  A
C821        H837   1.084       .  S
C822        C832   1.401       .  A
C822        C823   1.412       .  A
C823        C829   1.409       .  A
C823        C824   1.409       .  A
C824        C826   1.412       .  A
C824        C825   1.410       .  A
C825        C833   1.398       .  A
C826        C835   1.401       .  A
C826        C827   1.403       .  A
C827        C828   1.398       .  A
C827        H838   1.084       .  S
C828        C829   1.404       .  A
C828        H839   1.084       .  S
C829        C830   1.399       .  A
C830        C831   1.409       .  A
C830        H840   1.084       .  S
C831        C832   1.405       .  A
C832        H841   1.084       .  S
C833        C834   1.407       .  A
C833        H842   1.084       .  S
C834        C835   1.406       .  A
C835        H843   1.084       .  S
