geometry optimzed in LAMMPS
_audit_creation_date              2020-11-30 
_audit_creation_method            'lammps2cif' 
_symmetry_space_group_name_H-M    'P1' 
_symmetry_Int_Tables_number       1 
_symmetry_cell_setting            triclinic 
loop_ 
_symmetry_equiv_pos_as_xyz 
  x,y,z 
_cell_length_a                    33.61709406 
_cell_length_b                    42.25063632465972 
_cell_length_c                    38.90741437734132 
_cell_angle_alpha                 90.02695056924678 
_cell_angle_beta                  89.9874101864465 
_cell_angle_gamma                 90.08773555700085 
loop_ 
_atom_site_label 
_atom_site_type_symbol 
_atom_site_fract_x 
_atom_site_fract_y 
_atom_site_fract_z 
_atom_site_charge 
C1          C  0.19947875  0.83697949  0.38525343     0.80600
N2          N  0.18855381  0.86416498  0.36916263    -0.77700
C3          C  0.16311056  0.88467942  0.38458799     0.83000
N4          N  0.14743379  0.87712994  0.41569864    -0.77700
C5          C  0.15711083  0.84966743  0.43168045     0.83100
N6          N  0.18338765  0.82979019  0.41630658    -0.79400
C7          C  0.70259263  0.83561859  0.07757738     0.80600
N8          N  0.71980341  0.82755664  0.04718561    -0.77700
C9          C  0.74689844  0.84696947  0.03215449     0.83000
N10         N  0.75660031  0.87475877  0.04731668    -0.77700
C11         C  0.73961408  0.88318276  0.07754109     0.83100
N12         N  0.71300791  0.86345105  0.09282105    -0.79400
Zn13       Zn  0.98052312  0.80382477  0.78027086     1.49700
Zn14       Zn  0.97372372  0.76740438  0.70857829     1.49400
Zn15       Zn  0.89987762  0.80847098  0.73723969     1.49100
Zn16       Zn  0.97845245  0.84204736  0.70999165     1.49500
O17         O  0.95794752  0.80528866  0.73412129    -1.83800
O18         O  0.01385325  0.76503671  0.78644816    -0.74400
O19         O  0.92559404  0.74524768  0.69042858    -0.74200
O20         O  0.88135208  0.80725206  0.78662181    -0.73700
O21         O  0.00492860  0.73752076  0.73837394    -0.74400
O22         O  0.93751771  0.80334070  0.81630580    -0.74000
O23         O  0.87434025  0.77273327  0.71105296    -0.74600
O24         O  0.93477126  0.87045057  0.69463600    -0.74000
O25         O  0.00854541  0.77773690  0.66762501    -0.74700
O26         O  0.87971229  0.84912329  0.71600930    -0.74100
O27         O  0.01095253  0.83010427  0.66908843    -0.74600
O28         O  0.01285388  0.86823891  0.74014847    -0.74500
O29         O  0.01537329  0.84166411  0.78940558    -0.74300
C30         C  0.02044376  0.74072582  0.76800248     0.77500
C31         C  0.88839311  0.75014710  0.69310661     0.78000
C32         C  0.89970972  0.80496169  0.81514973     0.76900
C33         C  0.89742156  0.87108345  0.69961858     0.77300
C34         C  0.02051251  0.80393765  0.65524696     0.78500
C35         C  0.02473148  0.86536180  0.77093510     0.77500
C36         C  0.21274084  0.59181009  0.88052899     0.80600
N37         N  0.22673012  0.56495533  0.86552554    -0.77700
C38         C  0.25220798  0.54555878  0.88269231     0.83000
N39         N  0.26333963  0.55342833  0.91514015    -0.77700
C40         C  0.24896133  0.57984155  0.93052871     0.83100
N41         N  0.22399392  0.59908190  0.91305495    -0.79400
C42         C  0.69938369  0.60072023  0.57725083     0.80600
N43         N  0.68560088  0.57544316  0.59521417    -0.77700
C44         C  0.65746814  0.55636315  0.58133103     0.83000
N45         N  0.64237099  0.56298956  0.54986119    -0.77700
C46         C  0.65546581  0.58847270  0.53191977     0.83100
N47         N  0.68381186  0.60740577  0.54589021    -0.79400
Zn48       Zn  0.43591877  0.58397731  0.20679549     1.49700
Zn49       Zn  0.42920804  0.65973164  0.20697995     1.49400
Zn50       Zn  0.42872985  0.62141485  0.27723762     1.49100
Zn51       Zn  0.50908283  0.62492309  0.23314095     1.49500
O52         O  0.45080743  0.62268118  0.23092057    -1.83800
O53         O  0.40287419  0.59384409  0.16553026    -0.74400
O54         O  0.39154415  0.68444789  0.23734739    -0.74200
O55         O  0.40007696  0.58073883  0.28602290    -0.73700
O56         O  0.39893710  0.64642396  0.16440091    -0.74400
O57         O  0.40532670  0.55400387  0.23706476    -0.74000
O58         O  0.38995908  0.65663418  0.28579854    -0.74600
O59         O  0.52794401  0.62461933  0.28248840    -0.74000
O60         O  0.47358088  0.68918065  0.19251634    -0.74700
O61         O  0.47195870  0.62457139  0.31234473    -0.74100
O62         O  0.52825866  0.66537821  0.21156420    -0.74600
O63         O  0.53550804  0.58878798  0.20706743    -0.74500
O64         O  0.48380909  0.56106586  0.18908461    -0.74300
C65         C  0.39140196  0.61939000  0.15142454     0.77500
C66         C  0.37848658  0.67993504  0.26767981     0.78000
C67         C  0.39354325  0.55614947  0.26804712     0.76900
C68         C  0.50971921  0.62504234  0.31123912     0.77300
C69         C  0.51120047  0.68840371  0.19649544     0.78500
C70         C  0.52124883  0.56532561  0.19057053     0.77500
C71         C  0.21211256  0.33152342  0.38404277     0.80600
N72         N  0.22755295  0.32115765  0.41433544    -0.77700
C73         C  0.25562843  0.33850525  0.43094317     0.83000
N74         N  0.26867768  0.36583435  0.41662074    -0.77700
C75         C  0.25391911  0.37651907  0.38645120     0.83100
N76         N  0.22564933  0.35901803  0.37020268    -0.79400
C77         C  0.71736643  0.34698264  0.07158034     0.80600
N78         N  0.70333693  0.33913116  0.03991301    -0.77700
C79         C  0.67547103  0.35707098  0.02391492     0.83000
N80         N  0.66089338  0.38289602  0.04050813    -0.77700
C81         C  0.67390127  0.39083660  0.07239015     0.83100
N82         N  0.70245201  0.37295896  0.08763493    -0.79400
Zn83       Zn  0.48238658  0.34293096  0.75230331     1.49700
Zn84       Zn  0.48431427  0.30634907  0.68081109     1.49400
Zn85       Zn  0.48746829  0.26734656  0.75119094     1.49100
Zn86       Zn  0.40714728  0.30371201  0.72886069     1.49500
O87         O  0.46535423  0.30486748  0.72825618    -1.83800
O88         O  0.51508089  0.37088871  0.72217035    -0.74400
O89         O  0.52088930  0.27005700  0.67064973    -0.74200
O90         O  0.52086634  0.27979671  0.79246855    -0.73700
O91         O  0.51504268  0.34648573  0.67160716    -0.74400
O92         O  0.51606860  0.33227476  0.79281570    -0.74000
O93         O  0.52273234  0.24230479  0.71909381    -0.74600
O94         O  0.38832696  0.26467747  0.75320412    -0.74000
O95         O  0.43867708  0.30359056  0.64749171    -0.74700
O96         O  0.44324913  0.23857317  0.76734561    -0.74100
O97         O  0.38507063  0.30210889  0.68096579    -0.74600
O98         O  0.38304779  0.34217156  0.75201261    -0.74500
O99         O  0.43618001  0.36898591  0.76841339    -0.74300
C100        C  0.52552944  0.36941934  0.69084408     0.77500
C101        C  0.53352844  0.24667442  0.68808053     0.78000
C102        C  0.52905604  0.30663643  0.80565774     0.76900
C103        C  0.40548228  0.24079814  0.76655691     0.77300
C104        C  0.40112337  0.30196632  0.65136382     0.78500
C105        C  0.39854339  0.36626106  0.76640714     0.77500
C106        C  0.21977759  0.08626805  0.87929151     0.80600
N107        N  0.20213710  0.09707405  0.90853273    -0.77700
C108        C  0.17197419  0.08046417  0.92324976     0.83000
N109        N  0.15958527  0.05326504  0.90818819    -0.77700
C110        C  0.17686121  0.04219158  0.87919390     0.83100
N111        N  0.20663558  0.05909973  0.86443509    -0.79400
C112        C  0.72179315  0.09542452  0.57285771     0.80600
N113        N  0.73864509  0.10209482  0.54190434    -0.77700
C114        C  0.76925802  0.08431373  0.52976848     0.83000
N115        N  0.78293890  0.05979061  0.54889774    -0.77700
C116        C  0.76643974  0.05312338  0.57985013     0.83100
N117        N  0.73603597  0.07099587  0.59184056    -0.79400
Zn118      Zn  0.98060574  0.12189475  0.26834796     1.49700
Zn119      Zn  0.97732520  0.08432077  0.19753459     1.49400
Zn120      Zn  0.90180393  0.12343695  0.22274448     1.49100
Zn121      Zn  0.98018483  0.16027516  0.19734136     1.49500
O122        O  0.96002775  0.12263530  0.22142632    -1.83800
O123        O  0.01526240  0.08375148  0.27630748    -0.74400
O124        O  0.93068092  0.05755501  0.18295413    -0.74200
O125        O  0.88101760  0.12042492  0.27123857    -0.73700
O126        O  0.01323838  0.05759793  0.22709737    -0.74400
O127        O  0.93609118  0.12015580  0.30295484    -0.74000
O128        O  0.87834933  0.08636172  0.19751510    -0.74600
O129        O  0.93448508  0.18831949  0.18215375    -0.74000
O130        O  0.00768094  0.09533365  0.15490128    -0.74700
O131        O  0.88076881  0.16321427  0.20100638    -0.74100
O132        O  0.01190127  0.14778622  0.15502590    -0.74600
O133        O  0.01595400  0.18626939  0.22843772    -0.74500
O134        O  0.01429059  0.16016148  0.27799372    -0.74300
C135        C  0.02556904  0.06023829  0.25786401     0.77500
C136        C  0.89317223  0.06162858  0.18405689     0.78000
C137        C  0.89838795  0.11913392  0.30025004     0.76900
C138        C  0.89681458  0.18662049  0.18576307     0.77300
C139        C  0.01934158  0.12107800  0.14121478     0.78500
C140        C  0.02657670  0.18315569  0.25969681     0.77500
C141        C  0.84338984  0.09580644  0.45666638    -0.22100
C142        C  0.81791772  0.10430481  0.42975584     0.09900
C143        C  0.77676493  0.10706863  0.43585279     0.10300
C144        C  0.76182272  0.10075375  0.46884868    -0.17000
C145        C  0.78711137  0.09144844  0.49578977    -0.27400
C146        C  0.82862643  0.08939546  0.48967815     0.18600
C147        C  0.83529833  0.10960728  0.39529297     0.12600
C148        C  0.74877783  0.11677796  0.40756011    -0.11800
H149        H  0.73011088  0.10257406  0.47347470     0.12900
C150        C  0.85779684  0.08154022  0.51786347    -0.22600
H151        H  0.87504350  0.09406487  0.45167283     0.08500
C152        C  0.85453771  0.13826116  0.38687765     0.04800
C153        C  0.87418305  0.14097008  0.35518938    -0.19900
C154        C  0.87446868  0.11581059  0.33168282    -0.12100
C155        C  0.85398651  0.08745000  0.33964152     0.13500
C156        C  0.83468784  0.08472974  0.37146958    -0.22600
C157        C  0.85442771  0.16583499  0.41141284    -0.05600
H158        H  0.88976848  0.16267920  0.34884347     0.15100
C159        C  0.85315754  0.05919578  0.31593288    -0.15800
H160        H  0.81989068  0.06274362  0.37813938     0.09400
H161        H  0.88907638  0.08360150  0.50892245     0.07200
H162        H  0.85339592  0.05682949  0.52669883     0.08400
H163        H  0.85381861  0.09811252  0.53975319     0.07500
H164        H  0.75006846  0.09930749  0.38627387     0.02400
H165        H  0.75743299  0.14044076  0.39763421     0.02900
H166        H  0.71753537  0.11812230  0.41673108     0.06400
H167        H  0.87032500  0.18663372  0.40059770     0.05300
H168        H  0.86930096  0.15907880  0.43578590    -0.00400
H169        H  0.82330049  0.17295629  0.41696238     0.01000
H170        H  0.86648202  0.03848132  0.32916249     0.04700
H171        H  0.86984093  0.06300149  0.29173315     0.06600
H172        H  0.82186909  0.05349559  0.30915824     0.07500
C173        C  0.06211307  0.13688421  0.05177426    -0.22100
C174        C  0.08820684  0.11127271  0.04853250     0.09900
C175        C  0.09212111  0.08950324  0.07571246     0.10300
C176        C  0.06973380  0.09387839  0.10571514    -0.17000
C177        C  0.04284192  0.11919545  0.10902144    -0.27400
C178        C  0.03861835  0.14082568  0.08131938     0.18600
C179        C  0.10858944  0.10598386  0.01535683     0.12600
C180        C  0.11929997  0.06129206  0.07270809    -0.11800
H181        H  0.07300021  0.07717747  0.12666169     0.12900
C182        C  0.00819132  0.16702944  0.08053456    -0.22600
H183        H  0.05870332  0.15308801  0.03037598     0.08500
C184        C  0.08970202  0.08912648  0.98874709     0.04800
C185        C  0.11090520  0.08233118  0.95871218    -0.19900
C186        C  0.15081447  0.09176397  0.95451636    -0.12100
C187        C  0.16930553  0.10963841  0.98097639     0.13500
C188        C  0.14782112  0.11647384  0.01110730    -0.22600
C189        C  0.04741130  0.07767359  0.99239137    -0.05600
H190        H  0.09618759  0.06906884  0.93850976     0.15100
C191        C  0.21191616  0.12045312  0.97857898    -0.15800
H192        H  0.16193312  0.12942066  0.03186781     0.09400
H193        H  0.98989847  0.16478267  0.05688321     0.07200
H194        H  0.02358734  0.19029059  0.08008395     0.08400
H195        H  0.98712987  0.16661264  0.10231361     0.07500
H196        H  0.15035053  0.06939568  0.06852237     0.02400
H197        H  0.10994502  0.04629274  0.05069708     0.02900
H198        H  0.11868989  0.04647016  0.09627223     0.06400
H199        H  0.03725369  0.06460148  0.96921417     0.05300
H200        H  0.02727527  0.09816652  0.99625230    -0.00400
H201        H  0.04497358  0.06152553  0.01479622     0.01000
H202        H  0.21551279  0.13713047  0.95677177     0.04700
H203        H  0.23163660  0.09966965  0.97509130     0.06600
H204        H  0.22161183  0.13301307  0.00222992     0.07500
C205        C  0.61900228  0.19007023  0.66932769    -0.22100
C206        C  0.60954785  0.18069962  0.63578692     0.09900
C207        C  0.57516651  0.19264304  0.61975352     0.10300
C208        C  0.55108357  0.21414942  0.63761911    -0.17000
C209        C  0.56050501  0.22385054  0.67122481    -0.27400
C210        C  0.59526512  0.21182746  0.68721226     0.18600
C211        C  0.63694003  0.15906995  0.61766486     0.12600
C212        C  0.56398728  0.18267622  0.58385272    -0.11800
H213        H  0.52452457  0.22329698  0.62535408     0.12900
C214        C  0.60965583  0.22231613  0.72213935    -0.22600
H215        H  0.64577584  0.18095663  0.68128823     0.08500
C216        C  0.66991661  0.17075677  0.59920959     0.04800
C217        C  0.69632701  0.14934242  0.58389304    -0.19900
C218        C  0.69092616  0.11652028  0.58721899    -0.12100
C219        C  0.65725664  0.10486074  0.60513209     0.13500
C220        C  0.63056571  0.12639485  0.62004394    -0.22600
C221        C  0.67754288  0.20579867  0.59620732    -0.05600
H222        H  0.72208569  0.15829361  0.57020781     0.15100
C223        C  0.64874622  0.06991851  0.60802949    -0.15800
H224        H  0.60489889  0.11776777  0.63409539     0.09400
H225        H  0.64065866  0.23121998  0.71995580     0.07200
H226        H  0.60931020  0.20186248  0.74004703     0.08400
H227        H  0.59192530  0.24169751  0.73348048     0.07500
H228        H  0.55942224  0.15665651  0.58304172     0.02400
H229        H  0.58806869  0.18920135  0.56565690     0.02900
H230        H  0.53611133  0.19424695  0.57513934     0.06400
H231        H  0.70469406  0.21090037  0.58089509     0.05300
H232        H  0.68161217  0.21619371  0.62218262    -0.00400
H233        H  0.65194500  0.21744096  0.58342095     0.01000
H234        H  0.67197763  0.05817960  0.62370699     0.04700
H235        H  0.64781573  0.05912537  0.58201451     0.06600
H236        H  0.61967822  0.06533472  0.62068021     0.07500
C237        C  0.36537179  0.16110916  0.79751158    -0.22100
C238        C  0.32911509  0.17056343  0.81191740     0.09900
C239        C  0.31822864  0.20273289  0.81162864     0.10300
C240        C  0.34376406  0.22485200  0.79645178    -0.17000
C241        C  0.38038006  0.21573034  0.78210912    -0.27400
C242        C  0.39132885  0.18330198  0.78259953     0.18600
C243        C  0.30309216  0.14658697  0.82791363     0.12600
C244        C  0.27998773  0.21380232  0.82790967    -0.11800
H245        H  0.33530409  0.24961498  0.79634863     0.12900
C246        C  0.42951859  0.17166102  0.76672427    -0.22600
H247        H  0.37329987  0.13626871  0.79799064     0.08500
C248        C  0.27117202  0.13286761  0.80972307     0.04800
C249        C  0.24509602  0.11245084  0.82703768    -0.19900
C250        C  0.25055755  0.10530803  0.86196531    -0.12100
C251        C  0.28414115  0.11747960  0.87948652     0.13500
C252        C  0.30965789  0.13843203  0.86232008    -0.22600
C253        C  0.26458616  0.13989720  0.77218210    -0.05600
H254        H  0.21972704  0.10267312  0.81349468     0.15100
C255        C  0.29478787  0.10811758  0.91569117    -0.15800
H256        H  0.33484925  0.14854011  0.87586349     0.09400
H257        H  0.43185756  0.14545688  0.76780860     0.07200
H258        H  0.45541385  0.18152550  0.78081535     0.08400
H259        H  0.43091158  0.17884933  0.73930063     0.07500
H260        H  0.27992038  0.20763119  0.85564041     0.02400
H261        H  0.25415314  0.20231688  0.81528422     0.02900
H262        H  0.27624120  0.23983313  0.82563035     0.06400
H263        H  0.23832636  0.12703648  0.76188163     0.05300
H264        H  0.29111625  0.13252544  0.75720243    -0.00400
H265        H  0.25962457  0.16559703  0.76832899     0.01000
H266        H  0.32561968  0.09871847  0.91615132     0.04700
H267        H  0.27526293  0.08931276  0.92610620     0.06600
H268        H  0.29317571  0.12914531  0.93274942     0.07500
C269        C  0.65772094  0.31761422  0.93617615    -0.22100
C270        C  0.62065895  0.33035670  0.92761416     0.09900
C271        C  0.60234937  0.35220311  0.94986321     0.10300
C272        C  0.62124503  0.36046965  0.98064356    -0.17000
C273        C  0.65826258  0.34747452  0.99003313    -0.27400
C274        C  0.67693324  0.32582532  0.96705465     0.18600
C275        C  0.60125756  0.32100813  0.89504081     0.12600
C276        C  0.56284281  0.36695142  0.94099002    -0.11800
H277        H  0.60646705  0.37700478  0.99765959     0.12900
C278        C  0.71718087  0.31152973  0.97410223    -0.22600
H279        H  0.67158301  0.30107658  0.91855375     0.08500
C280        C  0.60979209  0.33688554  0.86407817     0.04800
C281        C  0.58652804  0.33059785  0.83498376    -0.19900
C282        C  0.55488778  0.30885325  0.83618024    -0.12100
C283        C  0.54719717  0.29214749  0.86704323     0.13500
C284        C  0.57090816  0.29824783  0.89598795    -0.22600
C285        C  0.64257443  0.36116557  0.86210498    -0.05600
H286        H  0.59242722  0.34332218  0.81131260     0.15100
C287        C  0.51293272  0.26940993  0.87138828    -0.15800
H288        H  0.56436984  0.28634633  0.92002178     0.09400
H289        H  0.72785742  0.29699305  0.95217099     0.07200
H290        H  0.71556361  0.29568445  0.99677772     0.08400
H291        H  0.73939996  0.33056892  0.97852475     0.07500
H292        H  0.53978298  0.34825891  0.93853604     0.02400
H293        H  0.56530408  0.37995746  0.91628810     0.02900
H294        H  0.55288058  0.38392468  0.96101547     0.06400
H295        H  0.64509640  0.37154293  0.83596641     0.05300
H296        H  0.67144827  0.34994719  0.86860348    -0.00400
H297        H  0.63660193  0.38066943  0.88052074     0.01000
H298        H  0.52460271  0.24555037  0.87773845     0.04700
H299        H  0.49381032  0.26732034  0.84838851     0.06600
H300        H  0.49368252  0.27756339  0.89282874     0.07500
C301        C  0.80973662  0.24248270  0.16768706    -0.22100
C302        C  0.82415494  0.25902471  0.13912857     0.09900
C303        C  0.86281375  0.25288050  0.12689275     0.10300
C304        C  0.88596089  0.22958296  0.14302090    -0.17000
C305        C  0.87127275  0.21204617  0.17107096    -0.27400
C306        C  0.83266091  0.21906030  0.18389211     0.18600
C307        C  0.79740629  0.28161542  0.12147475     0.12600
C308        C  0.87932883  0.27060562  0.09648017    -0.11800
H309        H  0.91539387  0.22457264  0.13308304     0.12900
C310        C  0.81536242  0.20258983  0.21488392    -0.22600
H311        H  0.78002765  0.24762517  0.17694832     0.08500
C312        C  0.77012931  0.27113808  0.09646190     0.04800
C313        C  0.74488993  0.29309733  0.08061135    -0.19900
C314        C  0.74581442  0.32544241  0.08934550    -0.12100
C315        C  0.77342875  0.33587244  0.11460070     0.13500
C316        C  0.79894100  0.31374853  0.13019566    -0.22600
C317        C  0.76760705  0.23669717  0.08657448    -0.05600
H318        H  0.72375999  0.28470645  0.06167623     0.15100
C319        C  0.77703591  0.37015394  0.12490350    -0.15800
H320        H  0.82012456  0.32146786  0.14948125     0.09400
H321        H  0.81026721  0.17717948  0.20915865     0.07200
H322        H  0.78622880  0.21282077  0.22246208     0.08400
H323        H  0.83585099  0.20509013  0.23710751     0.07500
H324        H  0.88018963  0.29633096  0.10226528     0.02400
H325        H  0.86021761  0.26652206  0.07363272     0.02900
H326        H  0.90999767  0.26284601  0.09006500     0.06400
H327        H  0.74481339  0.23249737  0.06641502     0.05300
H328        H  0.75955237  0.22229256  0.10940188    -0.00400
H329        H  0.79676957  0.22861463  0.07648891     0.01000
H330        H  0.74945086  0.37802240  0.13800602     0.04700
H331        H  0.78260797  0.38497242  0.10183467     0.06600
H332        H  0.80202854  0.37404256  0.14310233     0.07500
C333        C  0.27194484  0.30524288  0.52104330    -0.22100
C334        C  0.31199549  0.31325852  0.52618239     0.09900
C335        C  0.33359133  0.32807677  0.49960981     0.10300
C336        C  0.31454303  0.33472890  0.46851819    -0.17000
C337        C  0.27413719  0.32757102  0.46338880    -0.27400
C338        C  0.25253324  0.31244518  0.49000969     0.18600
C339        C  0.33065874  0.30751852  0.56002431     0.12600
C340        C  0.37639134  0.33791059  0.50439822    -0.11800
H341        H  0.33132817  0.34604569  0.44815694     0.12900
C342        C  0.20881940  0.30517122  0.48665161    -0.22600
H343        H  0.25564131  0.29394461  0.54173343     0.08500
C344        C  0.32234385  0.32712720  0.58849507     0.04800
C345        C  0.34463416  0.32355432  0.61867747    -0.19900
C346        C  0.37540772  0.30124191  0.62075323    -0.12100
C347        C  0.38224803  0.28044157  0.59285148     0.13500
C348        C  0.35974231  0.28392913  0.56278114    -0.22600
C349        C  0.29128153  0.35274185  0.58653364    -0.05600
H350        H  0.33928292  0.33928241  0.64021815     0.15100
C351        C  0.41241926  0.25408481  0.59396059    -0.15800
H352        H  0.36554419  0.26861527  0.54097987     0.09400
H353        H  0.19642140  0.29505708  0.51073440     0.07200
H354        H  0.20397286  0.28757214  0.46589434     0.08400
H355        H  0.19217826  0.32720118  0.48078757     0.07500
H356        H  0.39520374  0.31678924  0.50901134     0.02400
H357        H  0.37886162  0.35425638  0.52665737     0.02900
H358        H  0.38826529  0.35029923  0.48139672     0.06400
H359        H  0.28943950  0.36647866  0.61082992     0.05300
H360        H  0.26163210  0.34208107  0.58165489    -0.00400
H361        H  0.29867355  0.36941848  0.56541969     0.01000
H362        H  0.39743697  0.23124006  0.58822475     0.04700
H363        H  0.42693248  0.25152001  0.61935252     0.06600
H364        H  0.43573407  0.25836109  0.57427838     0.07500
C365        C  0.12429928  0.30398147  0.32953892    -0.22100
C366        C  0.13111802  0.27130122  0.32868622     0.09900
C367        C  0.16420685  0.25852976  0.34604734     0.10300
C368        C  0.18972437  0.27877857  0.36419515    -0.17000
C369        C  0.18332938  0.31160909  0.36494454    -0.27400
C370        C  0.15010683  0.32441565  0.34734869     0.18600
C371        C  0.10276590  0.25053888  0.31025030     0.12600
C372        C  0.17246398  0.22349151  0.34547072    -0.11800
H373        H  0.21522926  0.26893436  0.37745425     0.12900
C374        C  0.14083971  0.35930967  0.34812162    -0.22600
H375        H  0.09857432  0.31345681  0.31628256     0.08500
C376        C  0.06862499  0.23854184  0.32673956     0.04800
C377        C  0.04421471  0.21692492  0.30928315    -0.19900
C378        C  0.05326503  0.20682465  0.27574748    -0.12100
C379        C  0.08784698  0.21882379  0.25931636     0.13500
C380        C  0.11167554  0.24100572  0.27664718    -0.22600
C381        C  0.05838709  0.24820158  0.36295306    -0.05600
H382        H  0.01792949  0.20771241  0.32198517     0.15100
C383        C  0.10224475  0.20759960  0.22466711    -0.15800
H384        H  0.13839395  0.24996736  0.26439870     0.09400
H385        H  0.11223354  0.36465296  0.33508750     0.07200
H386        H  0.16444685  0.37280935  0.33461420     0.08400
H387        H  0.13851915  0.36754395  0.37515377     0.07500
H388        H  0.17716481  0.21551954  0.31858536     0.02400
H389        H  0.14687931  0.21042734  0.35665212     0.02900
H390        H  0.19946367  0.21741605  0.36052035     0.06400
H391        H  0.03078688  0.23645813  0.37214426     0.05300
H392        H  0.05379041  0.27419391  0.36410779    -0.00400
H393        H  0.08298449  0.24160479  0.38057598     0.01000
H394        H  0.10146937  0.22755270  0.20612374     0.04700
H395        H  0.08485409  0.18766449  0.21401793     0.06600
H396        H  0.13340536  0.19916054  0.22699916     0.07500
C397        C  0.36027825  0.47468843  0.29782248    -0.22100
C398        C  0.32542356  0.48250057  0.31557571     0.09900
C399        C  0.31283555  0.51421450  0.31732464     0.10300
C400        C  0.33571549  0.53764886  0.30125501    -0.17000
C401        C  0.37088300  0.53000828  0.28361759    -0.27400
C402        C  0.38356863  0.49806995  0.28209033     0.18600
C403        C  0.30422181  0.45717122  0.33408468     0.12600
C404        C  0.27539418  0.52323311  0.33618191    -0.11800
H405        H  0.32610630  0.56211742  0.30243748     0.12900
C406        C  0.42223207  0.48775030  0.26591840    -0.22600
H407        H  0.37000349  0.45022474  0.29717083     0.08500
C408        C  0.27690204  0.43722191  0.31738091     0.04800
C409        C  0.26018892  0.41182077  0.33549278    -0.19900
C410        C  0.27045788  0.40562442  0.36998945    -0.12100
C411        C  0.29709966  0.42678950  0.38698842     0.13500
C412        C  0.31347822  0.45219563  0.36862745    -0.22600
C413        C  0.26578842  0.44261132  0.28034111    -0.05600
H414        H  0.23971688  0.39629956  0.32211901     0.15100
C415        C  0.30905669  0.42331062  0.42419083    -0.15800
H416        H  0.33446854  0.46801882  0.38103938     0.09400
H417        H  0.41595667  0.47165999  0.24400285     0.07200
H418        H  0.44024875  0.47477118  0.28523257     0.08400
H419        H  0.44077018  0.50761248  0.25659930     0.07500
H420        H  0.27799229  0.51658474  0.36368708     0.02400
H421        H  0.24954925  0.51070786  0.32471942     0.02900
H422        H  0.26966959  0.54908546  0.33476480     0.06400
H423        H  0.24374387  0.42492468  0.27115533     0.05300
H424        H  0.29267086  0.44082067  0.26388474    -0.00400
H425        H  0.25259245  0.46652493  0.27737227     0.01000
H426        H  0.32795645  0.44330889  0.43303882     0.04700
H427        H  0.32678782  0.40144468  0.42770910     0.06600
H428        H  0.28220162  0.42286769  0.44079629     0.07500
C429        C  0.61212934  0.52069459  0.15476190    -0.22100
C430        C  0.59329335  0.49589969  0.13724865     0.09900
C431        C  0.55147923  0.49433305  0.13664276     0.10300
C432        C  0.52932011  0.51740209  0.15397830    -0.17000
C433        C  0.54771079  0.54226059  0.17230308    -0.27400
C434        C  0.59002711  0.54400458  0.17225591     0.18600
C435        C  0.61755725  0.47064158  0.12117367     0.12600
C436        C  0.53016318  0.46804014  0.11792982    -0.11800
H437        H  0.49718152  0.51566321  0.15328993     0.12900
C438        C  0.61248522  0.56994299  0.19049938    -0.22600
H439        H  0.64435357  0.52155546  0.15501213     0.08500
C440        C  0.62931838  0.47208608  0.08644352     0.04800
C441        C  0.64842340  0.44588827  0.07154795    -0.19900
C442        C  0.65564626  0.41810681  0.09048759    -0.12100
C443        C  0.64354988  0.41680286  0.12543632     0.13500
C444        C  0.62559888  0.44341394  0.14040882    -0.22600
C445        C  0.62117555  0.50108052  0.06508003    -0.05600
H446        H  0.65739079  0.44696737  0.04481462     0.15100
C447        C  0.64609145  0.38740513  0.14734248    -0.15800
H448        H  0.61574823  0.44230509  0.16692781     0.09400
H449        H  0.60414762  0.59330800  0.17965158     0.07200
H450        H  0.64517833  0.56733004  0.18749256     0.08400
H451        H  0.60581884  0.56926656  0.21843459     0.07500
H452        H  0.53870161  0.44482956  0.12903700     0.02400
H453        H  0.53824311  0.46845269  0.09027599     0.02900
H454        H  0.49733569  0.47035375  0.11991404     0.06400
H455        H  0.63231042  0.49834354  0.03836556     0.05300
H456        H  0.63613870  0.52191115  0.07676081    -0.00400
H457        H  0.58867744  0.50554798  0.06390194     0.01000
H458        H  0.66769913  0.39131927  0.16850119     0.04700
H459        H  0.65456670  0.36588303  0.13301867     0.06600
H460        H  0.61644135  0.38235232  0.15871064     0.07500
C461        C  0.63437235  0.47169754  0.60528970    -0.22100
C462        C  0.60871308  0.47624091  0.63321990     0.09900
C463        C  0.60150529  0.50709312  0.64564048     0.10300
C464        C  0.61926460  0.53292836  0.62897316    -0.17000
C465        C  0.64343385  0.52842066  0.60004147    -0.27400
C466        C  0.65174731  0.49746014  0.58837529     0.18600
C467        C  0.58791725  0.44845080  0.64763408     0.12600
C468        C  0.57403091  0.51277257  0.67559626    -0.11800
H469        H  0.61314652  0.55680139  0.63775106     0.12900
C470        C  0.67878152  0.49074339  0.55832547    -0.22600
H471        H  0.64012929  0.44788358  0.59614796     0.08500
C472        C  0.55608611  0.43410033  0.62984996     0.04800
C473        C  0.53714869  0.40773666  0.64427827    -0.19900
C474        C  0.54911810  0.39553471  0.67615326    -0.12100
C475        C  0.58170101  0.40957547  0.69365516     0.13500
C476        C  0.60041446  0.43610117  0.67921034    -0.22600
C477        C  0.54144196  0.44709363  0.59607655    -0.05600
H478        H  0.51213200  0.39706881  0.63099925     0.15100
C479        C  0.59864452  0.39676472  0.72675497    -0.15800
H480        H  0.62532804  0.44700153  0.69243237     0.09400
H481        H  0.66172813  0.47847875  0.53781434     0.07200
H482        H  0.70348724  0.47518120  0.56681116     0.08400
H483        H  0.69222629  0.51239485  0.54719430     0.07500
H484        H  0.58581206  0.50085003  0.69886591     0.02400
H485        H  0.54401558  0.50323038  0.66964891     0.02900
H486        H  0.57100089  0.53839351  0.68143527     0.06400
H487        H  0.51545928  0.43359837  0.58621638     0.05300
H488        H  0.56537482  0.44573396  0.57649534    -0.00400
H489        H  0.53230070  0.47215382  0.59939322     0.01000
H490        H  0.63096507  0.39229721  0.72341796     0.04700
H491        H  0.58515905  0.37407160  0.73488672     0.06600
H492        H  0.59458088  0.41443302  0.74759401     0.07500
C493        C  0.60885458  0.58186224  0.44309922    -0.22100
C494        C  0.60309113  0.61378529  0.43508578     0.09900
C495        C  0.61593284  0.63743725  0.45805142     0.10300
C496        C  0.63355105  0.62845379  0.48923546    -0.17000
C497        C  0.63815748  0.59634180  0.49800592    -0.27400
C498        C  0.62624136  0.57271700  0.47423313     0.18600
C499        C  0.58063181  0.62126074  0.40358130     0.12600
C500        C  0.61080862  0.67198442  0.44966914    -0.11800
H501        H  0.64290686  0.64662657  0.50720361     0.12900
C502        C  0.63239288  0.53788951  0.48085477    -0.22600
H503        H  0.59889445  0.56396617  0.42503265     0.08500
C504        C  0.59877133  0.62096032  0.37102087     0.04800
C505        C  0.57495008  0.62332072  0.34156481    -0.19900
C506        C  0.53315794  0.62541214  0.34383192    -0.12100
C507        C  0.51528616  0.62677204  0.37703418     0.13500
C508        C  0.53946722  0.62485080  0.40630924    -0.22600
C509        C  0.64317885  0.61756214  0.36743414    -0.05600
H510        H  0.58919715  0.62259515  0.31661364     0.15100
C511        C  0.47097052  0.62952510  0.38249358    -0.15800
H512        H  0.52605665  0.62486919  0.43168752     0.09400
H513        H  0.62430008  0.52330133  0.45814210     0.07200
H514        H  0.61337384  0.52989679  0.50247874     0.08400
H515        H  0.66415928  0.53329290  0.48681003     0.07500
H516        H  0.57875472  0.67745655  0.44634638     0.02400
H517        H  0.62687279  0.67765192  0.42550360     0.02900
H518        H  0.62273275  0.68742620  0.47037263     0.06400
H519        H  0.65265033  0.61794758  0.34008782     0.05300
H520        H  0.65295465  0.59477898  0.37881814    -0.00400
H521        H  0.65827591  0.63735623  0.38096354     0.01000
H522        H  0.46311957  0.63094513  0.41019318     0.04700
H523        H  0.45563985  0.60837670  0.37190065     0.06600
H524        H  0.45967143  0.65136833  0.37004169     0.07500
C525        C  0.31022453  0.41507482  0.79999154    -0.22100
C526        C  0.32986573  0.44250941  0.81094014     0.09900
C527        C  0.37126194  0.44524075  0.80645850     0.10300
C528        C  0.39232362  0.42018541  0.79152890    -0.17000
C529        C  0.37319828  0.39209273  0.78094907    -0.27400
C530        C  0.33118333  0.38979091  0.78494422     0.18600
C531        C  0.30705888  0.46763999  0.82863946     0.12600
C532        C  0.39328407  0.47457010  0.81774427    -0.11800
H533        H  0.42421120  0.42267801  0.78834762     0.12900
C534        C  0.30795713  0.36091437  0.77410602    -0.22600
H535        H  0.27830942  0.41336072  0.80364956     0.08500
C536        C  0.28936164  0.49274138  0.81047921     0.04800
C537        C  0.27092970  0.51730388  0.82881413    -0.19900
C538        C  0.26994874  0.51753559  0.86504768    -0.12100
C539        C  0.28677128  0.49148889  0.88309063     0.13500
C540        C  0.30501200  0.46698161  0.86452067    -0.22600
C541        C  0.29050116  0.49378105  0.77179321    -0.05600
H542        H  0.25813985  0.53684646  0.81461448     0.15100
C543        C  0.28545574  0.48869172  0.92173085    -0.15800
H544        H  0.31859138  0.44735550  0.87809120     0.09400
H545        H  0.31088193  0.35730631  0.74595750     0.07200
H546        H  0.27573483  0.36333950  0.77986403     0.08400
H547        H  0.31894821  0.33977454  0.78810625     0.07500
H548        H  0.38952893  0.47803961  0.84583954     0.02400
H549        H  0.38141905  0.49554418  0.80400189     0.02900
H550        H  0.42563828  0.47293391  0.81223427     0.06400
H551        H  0.27527698  0.51509408  0.76154411     0.05300
H552        H  0.27542304  0.47252364  0.76117577    -0.00400
H553        H  0.32182249  0.49421238  0.76276935     0.01000
H554        H  0.25425503  0.49058291  0.93083558     0.04700
H555        H  0.30409760  0.50734833  0.93373490     0.06600
H556        H  0.29723486  0.46558159  0.93071687     0.07500
C557        C  0.36150230  0.59773318  0.06061383    -0.22100
C558        C  0.32316547  0.61048717  0.05903427     0.09900
C559        C  0.30768668  0.62719477  0.08741021     0.10300
C560        C  0.33114762  0.63066811  0.11705146    -0.17000
C561        C  0.36931041  0.61733310  0.11888648    -0.27400
C562        C  0.38494735  0.60104488  0.09009794     0.18600
C563        C  0.29985416  0.60511658  0.02741584     0.12600
C564        C  0.26632559  0.64078494  0.08654176    -0.11800
H565        H  0.31928935  0.64305678  0.13920823     0.12900
C566        C  0.42646153  0.58751931  0.08907353    -0.22600
H567        H  0.37324375  0.58510750  0.03856146     0.08500
C568        C  0.30274496  0.62578507  0.99907875     0.04800
C569        C  0.28384182  0.61764187  0.96818060    -0.19900
C570        C  0.26312844  0.58894573  0.96488921    -0.12100
C571        C  0.25903029  0.56882140  0.99370323     0.13500
C572        C  0.27758762  0.57718548  0.02465518    -0.22600
C573        C  0.32694544  0.65576447  0.00110939    -0.05600
H574        H  0.28681294  0.63300032  0.94600741     0.15100
C575        C  0.23510238  0.53863572  0.99284824    -0.15800
H576        H  0.27543029  0.56145916  0.04661451     0.09400
H577        H  0.44287254  0.59779388  0.06694641     0.07200
H578        H  0.42483311  0.56144546  0.08575048     0.08400
H579        H  0.44411788  0.59269777  0.11243039     0.07500
H580        H  0.24436393  0.62151680  0.08234157     0.02400
H581        H  0.26384955  0.65822947  0.06534580     0.02900
H582        H  0.25874452  0.65295011  0.11099088     0.06400
H583        H  0.32623389  0.66912099  0.97653498     0.05300
H584        H  0.35841795  0.64995750  0.00697589    -0.00400
H585        H  0.31502456  0.67131068  0.02165050     0.01000
H586        H  0.25492989  0.51817011  0.99791192     0.04700
H587        H  0.21983328  0.53473048  0.96797507     0.06600
H588        H  0.21182673  0.53950226  0.01308616     0.07500
C589        C  0.83924822  0.70094957  0.62361222    -0.22100
C590        C  0.80854579  0.68671416  0.64233328     0.09900
C591        C  0.80354317  0.69377721  0.67746524     0.10300
C592        C  0.82977578  0.71504279  0.69330858    -0.17000
C593        C  0.86085418  0.72912604  0.67471379    -0.27400
C594        C  0.86524744  0.72248331  0.63921481     0.18600
C595        C  0.78138149  0.66491675  0.62440727     0.12600
C596        C  0.77049422  0.67891944  0.69807091    -0.11800
H597        H  0.82641842  0.72034939  0.72041705     0.12900
C598        C  0.89568077  0.73850843  0.61659577    -0.22600
H599        H  0.84242025  0.69566619  0.59647274     0.08500
C600        C  0.74909682  0.67634214  0.60501136     0.04800
C601        C  0.72337265  0.65468492  0.58926795    -0.19900
C602        C  0.72944486  0.62193250  0.59235449    -0.12100
C603        C  0.76306325  0.61059427  0.61054503     0.13500
C604        C  0.78820405  0.63234905  0.62687672    -0.22600
C605        C  0.74146167  0.71132040  0.60148419    -0.05600
H606        H  0.69784106  0.66337498  0.57512728     0.15100
C607        C  0.77453285  0.57612038  0.61220342    -0.15800
H608        H  0.81369462  0.62389903  0.64127144     0.09400
H609        H  0.88038452  0.74999713  0.59460275     0.07200
H610        H  0.91681933  0.72062040  0.60646575     0.08400
H611        H  0.91278620  0.75724073  0.62992154     0.07500
H612        H  0.77391103  0.65278988  0.69814288     0.02400
H613        H  0.74131894  0.68512625  0.68654735     0.02900
H614        H  0.77063608  0.68722303  0.72515899     0.06400
H615        H  0.71459109  0.71616468  0.58574563     0.05300
H616        H  0.76726413  0.72289797  0.58884599    -0.00400
H617        H  0.73694231  0.72196622  0.62728255     0.01000
H618        H  0.80581539  0.57337757  0.60351731     0.04700
H619        H  0.75632350  0.56073443  0.59539958     0.06600
H620        H  0.77213719  0.56759745  0.63911480     0.07500
C621        C  0.10212848  0.67902492  0.77731972    -0.22100
C622        C  0.09856303  0.67171129  0.81224415     0.09900
C623        C  0.06845443  0.68596455  0.83209525     0.10300
C624        C  0.04285295  0.70782367  0.81657146    -0.17000
C625        C  0.04687206  0.71591272  0.78171308    -0.27400
C626        C  0.07710646  0.70133098  0.76176884     0.18600
C627        C  0.12849781  0.65080643  0.82811430     0.12600
C628        C  0.06346052  0.67814829  0.86963893    -0.11800
H629        H  0.01977938  0.71892067  0.83182768     0.12900
C630        C  0.08596575  0.70977026  0.72484672    -0.22600
H631        H  0.12573835  0.66821032  0.76244465     0.08500
C632        C  0.12634681  0.61762866  0.82509558     0.04800
C633        C  0.15477789  0.59893717  0.84191213    -0.19900
C634        C  0.18506877  0.61278023  0.86178638    -0.12100
C635        C  0.18796020  0.64622452  0.86360963     0.13500
C636        C  0.15954574  0.66476049  0.84668848    -0.22600
C637        C  0.09368694  0.60207142  0.80465767    -0.05600
H638        H  0.15276373  0.57336167  0.84022191     0.15100
C639        C  0.22140827  0.66267269  0.88235470    -0.15800
H640        H  0.16122907  0.69036089  0.84818573     0.09400
H641        H  0.08024828  0.68889930  0.70820568     0.07200
H642        H  0.11779222  0.71649798  0.72242138     0.08400
H643        H  0.06867736  0.73001805  0.71496909     0.07500
H644        H  0.09070170  0.68485691  0.88402984     0.02400
H645        H  0.05810343  0.65236120  0.87267363     0.02900
H646        H  0.03794640  0.69099276  0.88120209     0.06400
H647        H  0.09605124  0.57586024  0.80527812     0.05300
H648        H  0.09538985  0.60978754  0.77742832    -0.00400
H649        H  0.06429817  0.60882612  0.81540190     0.01000
H650        H  0.22067969  0.68869755  0.87836103     0.04700
H651        H  0.25048696  0.65386302  0.87279847     0.06600
H652        H  0.21898892  0.65847013  0.91040720     0.07500
C653        C  0.82459652  0.93913174  0.68591937    -0.22100
C654        C  0.83555458  0.94868470  0.65276208     0.09900
C655        C  0.86610526  0.93260089  0.63523624     0.10300
C656        C  0.88523441  0.90727185  0.65135665    -0.17000
C657        C  0.87468533  0.89759989  0.68467436    -0.27400
C658        C  0.84410547  0.91398866  0.70242184     0.18600
C659        C  0.81541532  0.97600711  0.63677609     0.12600
C660        C  0.87830748  0.94203273  0.59938580    -0.11800
H661        H  0.90860058  0.89480425  0.63773683     0.12900
C662        C  0.83242059  0.90702283  0.73908451    -0.27000
H663        H  0.80130696  0.95190088  0.69930868     0.08500
C664        C  0.77884873  0.97250914  0.61942171     0.04800
C665        C  0.76273246  0.99852303  0.60190190    -0.19900
C666        C  0.78287376  0.02757573  0.60097902    -0.12100
C667        C  0.81913349  0.03123711  0.61892434     0.13500
C668        C  0.83485136  0.00536510  0.63681646    -0.22600
C669        C  0.75764124  0.94110118  0.61852701    -0.05600
H670        H  0.73495781  0.99595693  0.58801509     0.15100
C671        C  0.84206522  0.06193477  0.61957623    -0.15800
H672        H  0.86299712  0.00784532  0.65017199     0.09400
H673        H  0.80106064  0.89876674  0.73986290     0.07200
H674        H  0.83499163  0.92899731  0.75461097     0.08400
H675        H  0.85136775  0.88911195  0.75169599     0.07500
H676        H  0.88948877  0.96676143  0.59938606     0.02400
H677        H  0.85236466  0.94021753  0.58183647     0.02900
H678        H  0.90228328  0.92658704  0.58920352     0.06400
H679        H  0.72965390  0.94234907  0.60342833     0.05300
H680        H  0.75006518  0.93361397  0.64507912    -0.00400
H681        H  0.77713179  0.92298560  0.60655523     0.01000
H682        H  0.84578653  0.06987605  0.64659661     0.04700
H683        H  0.82713276  0.08123723  0.60528159     0.06600
H684        H  0.87191222  0.05824680  0.60803190     0.07500
C685        C  0.06170704  0.94525367  0.80065771    -0.22100
C686        C  0.10003618  0.93752601  0.81189162     0.09900
C687        C  0.11354336  0.90600223  0.80983852     0.10300
C688        C  0.08801450  0.88268988  0.79671551    -0.17000
C689        C  0.04962893  0.89044717  0.78548829    -0.27400
C690        C  0.03618647  0.92210004  0.78747442     0.18600
C691        C  0.12400181  0.96257613  0.82823586     0.12600
C692        C  0.15492871  0.89713947  0.82105850    -0.11800
H693        H  0.09814845  0.85839437  0.79482250     0.12900
C694        C  0.99480266  0.93219134  0.77721848    -0.22600
H695        H  0.05132573  0.96946820  0.80293523     0.08500
C696        C  0.14137730  0.98721605  0.80898660     0.04800
C697        C  0.15997898  0.01229315  0.82631061    -0.19900
C698        C  0.16094852  0.01342110  0.86242273    -0.12100
C699        C  0.14494757  0.98780236  0.88155294     0.13500
C700        C  0.12662978  0.96276332  0.86408738    -0.22600
C701        C  0.13996702  0.98712713  0.77028281    -0.05600
H702        H  0.17243060  0.03168007  0.81157679     0.15100
C703        C  0.14728503  0.98622149  0.92024930    -0.15800
H704        H  0.11318299  0.94357221  0.87849893     0.09400
H705        H  0.99667027  0.94961129  0.75591738     0.07200
H706        H  0.97990076  0.94354333  0.79950995     0.08400
H707        H  0.97562730  0.91231516  0.76881236     0.07500
H708        H  0.15877456  0.90213554  0.84885753     0.02400
H709        H  0.17706817  0.91105137  0.80618618     0.02900
H710        H  0.16101117  0.87160540  0.81679369     0.06400
H711        H  0.15579169  0.00785324  0.75922963     0.05300
H712        H  0.10863886  0.98792257  0.76135237    -0.00400
H713        H  0.15429768  0.96529908  0.76034927     0.01000
H714        H  0.12806861  0.00459780  0.93198526     0.04700
H715        H  0.17856221  0.98949422  0.92871735     0.06600
H716        H  0.13685805  0.96300364  0.93019022     0.07500
C717        C  0.80434239  0.00758224  0.16564337    -0.22100
C718        C  0.82019610  0.98819626  0.13993180     0.09900
C719        C  0.85941212  0.99318200  0.12836268     0.10300
C720        C  0.88218792  0.01745673  0.14306842    -0.17000
C721        C  0.86666969  0.03704560  0.16905485    -0.27400
C722        C  0.82697998  0.03200119  0.18044829     0.18600
C723        C  0.79567915  0.96211731  0.12603284     0.12600
C724        C  0.87734369  0.97258989  0.10079259    -0.11800
H725        H  0.91237451  0.02115684  0.13409300     0.12900
C726        C  0.80844504  0.05133791  0.20882508    -0.22600
H727        H  0.77417344  0.00330807  0.17435964     0.08500
C728        C  0.79366199  0.93256773  0.14278695     0.04800
C729        C  0.77244405  0.90773399  0.12739925    -0.19900
C730        C  0.75404167  0.91169095  0.09534795    -0.12100
C731        C  0.75486581  0.94168564  0.07919091     0.13500
C732        C  0.77568858  0.96659074  0.09483824    -0.22600
C733        C  0.81527680  0.92694040  0.17613421    -0.05600
H734        H  0.77208527  0.88461364  0.13951683     0.15100
C735        C  0.73407771  0.94825684  0.04562675    -0.15800
H736        H  0.77707502  0.98947476  0.08228323     0.09400
H737        H  0.77816565  0.04273690  0.21547668     0.07200
H738        H  0.80552531  0.07637814  0.20062883     0.08400
H739        H  0.82699395  0.04984770  0.23237911     0.07500
H740        H  0.85974794  0.97471599  0.07676828     0.02400
H741        H  0.87730140  0.94751181  0.10930464     0.02900
H742        H  0.90852297  0.97948576  0.09497484     0.06400
H743        H  0.81111136  0.90232806  0.18550555     0.05300
H744        H  0.80391501  0.94334432  0.19613223    -0.00400
H745        H  0.84763360  0.93107031  0.17249796     0.01000
H746        H  0.71292549  0.96816873  0.04910344     0.04700
H747        H  0.71679709  0.92772468  0.03601602     0.06600
H748        H  0.75635414  0.95495704  0.02584181     0.07500
C749        C  0.81691157  0.79922817  0.88200311    -0.22100
C750        C  0.83396812  0.81621806  0.90916658     0.09900
C751        C  0.87347104  0.82713727  0.90642700     0.10300
C752        C  0.89450276  0.82202240  0.87581371    -0.17000
C753        C  0.87710987  0.80598812  0.84789136    -0.27400
C754        C  0.83820410  0.79331518  0.85163500     0.18600
C755        C  0.80968267  0.82307009  0.93998908     0.12600
C756        C  0.89302739  0.84492462  0.93546609    -0.11800
H757        H  0.92433346  0.83153084  0.87332136     0.12900
C758        C  0.81854051  0.77251499  0.82507813    -0.22600
H759        H  0.78681106  0.79027175  0.88467098     0.08500
C760        C  0.78248298  0.84846772  0.94042290     0.04800
C761        C  0.76174987  0.85533634  0.97080736    -0.19900
C762        C  0.76767545  0.83734258  0.00062129    -0.12100
C763        C  0.79513486  0.81199544  0.00023510     0.13500
C764        C  0.81540480  0.80490838  0.96968934    -0.22600
C765        C  0.77604812  0.86869645  0.90904907    -0.05600
H766        H  0.74112755  0.87501845  0.97145140     0.15100
C767        C  0.80531312  0.79296788  0.03179930    -0.15800
H768        H  0.83673697  0.78570269  0.96929466     0.09400
H769        H  0.79243714  0.78494437  0.81402286     0.07200
H770        H  0.80816147  0.75032105  0.83749912     0.08400
H771        H  0.83871045  0.76524552  0.80406193     0.07500
H772        H  0.89450485  0.82965162  0.95863393     0.02400
H773        H  0.87561321  0.86652507  0.94153642     0.02900
H774        H  0.92382561  0.85227681  0.92884694     0.06400
H775        H  0.75417217  0.88784977  0.91393995     0.05300
H776        H  0.76464046  0.85389417  0.88762311    -0.00400
H777        H  0.80459616  0.87980530  0.90120739     0.01000
H778        H  0.79725846  0.76777948  0.02753723     0.04700
H779        H  0.78995654  0.80134488  0.05526206     0.06600
H780        H  0.83778920  0.79459186  0.03674001     0.07500
C781        C  0.59571673  0.74651768  0.18041866    -0.22100
C782        C  0.58679298  0.75641130  0.14696677     0.09900
C783        C  0.55143704  0.74603441  0.13107171     0.10300
C784        C  0.52630381  0.72501410  0.14866010    -0.17000
C785        C  0.53589918  0.71401890  0.18172093    -0.27400
C786        C  0.57040099  0.72588822  0.19832197     0.18600
C787        C  0.61552275  0.77699312  0.12875728     0.12600
C788        C  0.54067405  0.75670484  0.09533797    -0.11800
H789        H  0.49985347  0.71617108  0.13598431     0.12900
C790        C  0.58097307  0.71826362  0.23507240    -0.22600
H791        H  0.62262626  0.75511340  0.19271723     0.08500
C792        C  0.61510633  0.81010557  0.13271088     0.04800
C793        C  0.64368247  0.82846429  0.11551935    -0.19900
C794        C  0.67271814  0.81451618  0.09426678    -0.12100
C795        C  0.67277892  0.78104508  0.09031499     0.13500
C796        C  0.64415938  0.76284921  0.10770393    -0.22600
C797        C  0.58444314  0.82598555  0.15504536    -0.05600
H798        H  0.64312858  0.85394937  0.11860336     0.15100
C799        C  0.70341138  0.76392945  0.06897559    -0.15800
H800        H  0.64417102  0.73727550  0.10507645     0.09400
H801        H  0.58542702  0.74064282  0.24957382     0.07200
H802        H  0.60903412  0.70445346  0.23575834     0.08400
H803        H  0.55747354  0.70491881  0.24876887     0.07500
H804        H  0.56409420  0.74921194  0.07694666     0.02400
H805        H  0.53801489  0.78288347  0.09473011     0.02900
H806        H  0.51192124  0.74643594  0.08672969     0.06400
H807        H  0.58812462  0.85211213  0.15523463     0.05300
H808        H  0.58720366  0.81735518  0.18188283    -0.00400
H809        H  0.55415994  0.82047143  0.14534859     0.01000
H810        H  0.70003839  0.73782165  0.07075620     0.04700
H811        H  0.73370286  0.76999026  0.07820192     0.06600
H812        H  0.70015474  0.77033865  0.04147543     0.07500
C813        C  0.15582129  0.95710170  0.32605450    -0.22100
C814        C  0.11508854  0.96363412  0.32859903     0.09900
C815        C  0.09098045  0.94536321  0.35059739     0.10300
C816        C  0.10794984  0.92035420  0.36899275    -0.17000
C817        C  0.14862649  0.91316460  0.36621569    -0.27400
C818        C  0.17316787  0.93242663  0.34508530     0.18600
C819        C  0.09757109  0.98960374  0.30814847     0.12600
C820        C  0.04717589  0.95213007  0.35443294    -0.11800
H821        H  0.08895366  0.90579227  0.38498544     0.12900
C822        C  0.21769940  0.92874001  0.34288608    -0.22600
H823        H  0.17427170  0.97166985  0.30953396     0.08500
C824        C  0.09538505  0.02063352  0.32114694     0.04800
C825        C  0.07287540  0.04329853  0.30346188    -0.19900
C826        C  0.05212701  0.03567640  0.27307134    -0.12100
C827        C  0.05602860  0.00462623  0.25930866     0.13500
C828        C  0.07882237  0.98212156  0.27709390    -0.22600
C829        C  0.11588984  0.02952033  0.35420864    -0.05600
H830        H  0.07083666  0.06698893  0.31398442     0.15100
C831        C  0.03523816  0.99427380  0.22683927    -0.15800
H832        H  0.08075805  0.95807342  0.26750113     0.09400
H833        H  0.23215039  0.95183386  0.34847281     0.07200
H834        H  0.22612429  0.92118421  0.31654085     0.08400
H835        H  0.22985027  0.91165271  0.36165615     0.07500
H836        H  0.03209302  0.94950267  0.32921474     0.02400
H837        H  0.04286885  0.97664644  0.36399671     0.02900
H838        H  0.03271169  0.93569171  0.37288696     0.06400
H839        H  0.11107177  0.05478808  0.36088513     0.05300
H840        H  0.14839099  0.02552786  0.35165831    -0.00400
H841        H  0.10424422  0.01482084  0.37561774     0.01000
H842        H  0.04099199  0.96898527  0.22082432     0.04700
H843        H  0.04613213  0.00841770  0.20471370     0.06600
H844        H  0.00258558  0.99716317  0.22972711     0.07500
C845        C  0.08500269  0.84166191  0.50723092    -0.22100
C846        C  0.10657186  0.82175955  0.52901045     0.09900
C847        C  0.14414528  0.81056865  0.51880742     0.10300
C848        C  0.15988487  0.82031734  0.48711183    -0.17000
C849        C  0.13876095  0.84084813  0.46519628    -0.27400
C850        C  0.10036090  0.85133737  0.47541694     0.18600
C851        C  0.08933583  0.81428466  0.56297153     0.12600
C852        C  0.16746149  0.78833697  0.54133119    -0.11800
H853        H  0.18906115  0.81200987  0.47962438     0.12900
C854        C  0.07459913  0.87198479  0.45301138    -0.22600
H855        H  0.05598148  0.84989614  0.51545347     0.08500
C856        C  0.09517739  0.83476803  0.59108400     0.04800
C857        C  0.07369431  0.82967743  0.62140104    -0.19900
C858        C  0.04608373  0.80478156  0.62420732    -0.12100
C859        C  0.04152757  0.78340440  0.59636940     0.13500
C860        C  0.06333229  0.78849913  0.56602925    -0.22600
C861        C  0.12305069  0.86266194  0.58864743    -0.05600
H862        H  0.07765109  0.84586274  0.64275312     0.15100
C863        C  0.01226768  0.75636986  0.59756415    -0.15800
H864        H  0.05897930  0.77305953  0.54407814     0.09400
H865        H  0.04463610  0.87569568  0.46435161     0.07200
H866        H  0.07039747  0.86065737  0.42751060     0.08400
H867        H  0.08840414  0.89568803  0.45003537     0.07500
H868        H  0.15002659  0.76635562  0.54565615     0.02400
H869        H  0.17370030  0.79969165  0.56648374     0.02900
H870        H  0.19630992  0.78170192  0.52943780     0.06400
H871        H  0.12407402  0.87633475  0.61302047     0.05300
H872        H  0.11309291  0.87884642  0.56790342    -0.00400
H873        H  0.15361729  0.85434057  0.58285612     0.01000
H874        H  0.98190139  0.76560111  0.60247580     0.04700
H875        H  0.02073636  0.73950515  0.61814917     0.06600
H876        H  0.01152377  0.74303604  0.57295868     0.07500
C877        C  0.29008502  0.71640814  0.31391415    -0.22100
C878        C  0.30163672  0.74826072  0.31480942     0.09900
C879        C  0.33772112  0.75766682  0.29941201     0.10300
C880        C  0.36151519  0.73487356  0.28319271    -0.17000
C881        C  0.35037569  0.70285200  0.28267700    -0.27400
C882        C  0.31390041  0.69350591  0.29788471     0.18600
C883        C  0.27564618  0.77133039  0.33240361     0.12600
C884        C  0.35142620  0.79161024  0.30074181    -0.11800
H885        H  0.38955419  0.74192016  0.27171440     0.12900
C886        C  0.29850100  0.65996903  0.29686229    -0.22600
H887        H  0.26215924  0.70942089  0.32565140     0.08500
C888        C  0.24596125  0.78806961  0.31447848     0.04800
C889        C  0.22201752  0.80968017  0.33235598    -0.19900
C890        C  0.22655832  0.81443775  0.36789413    -0.12100
C891        C  0.25657617  0.79761189  0.38577638     0.13500
C892        C  0.28080841  0.77632034  0.36768204    -0.22600
C893        C  0.23927925  0.78279474  0.27661807    -0.05600
H894        H  0.19903618  0.82244046  0.31861655     0.15100
C895        C  0.26410377  0.80248824  0.42359727    -0.15800
H896        H  0.30389601  0.76336160  0.38108840     0.09400
H897        H  0.26865089  0.65964388  0.28463595     0.07200
H898        H  0.29580226  0.65070200  0.32346275     0.08400
H899        H  0.31769496  0.64372956  0.28192315     0.07500
H900        H  0.35480780  0.79915876  0.32792324     0.02400
H901        H  0.32933327  0.80710777  0.28793146     0.02900
H902        H  0.38050652  0.79487233  0.28764972     0.06400
H903        H  0.21471134  0.79771501  0.26659261     0.05300
H904        H  0.23148026  0.75761640  0.27193544    -0.00400
H905        H  0.26667231  0.78871278  0.26205401     0.01000
H906        H  0.23842409  0.79369079  0.43869781     0.04700
H907        H  0.26906050  0.82800346  0.42897748     0.06600
H908        H  0.29077698  0.78933408  0.43247116     0.07500
loop_ 
_geom_bond_atom_site_label_1 
_geom_bond_atom_site_label_2 
_geom_bond_distance 
_geom_bond_site_symmetry_2 
_ccdc_geom_bond_type 
C1            N2   1.359       .  A
C1            N6   1.358       .  A
C1          C890   1.481       .  S
N2            C3   1.358       .  A
C3            N4   1.358       .  A
C3          C817   1.483       .  S
N4            C5   1.357       .  A
C5            N6   1.358       .  A
C5          C849   1.490       .  S
C7            N8   1.360       .  A
C7           N12   1.362       .  A
C7          C794   1.491       .  S
N8            C9   1.357       .  A
C9           N10   1.353       .  A
C9          C762   1.469       .  S
N10          C11   1.355       .  A
C11          N12   1.359       .  A
C11         C730   1.471       .  S
Zn13         O17   1.951       .  S
Zn13         O18   2.001   1_655  S
Zn13         O22   2.014       .  S
Zn13         O29   2.012   1_655  S
Zn14         O17   1.958       .  S
Zn14         O19   1.997       .  S
Zn14         O21   2.011   1_655  S
Zn14         O25   2.024   1_655  S
Zn15         O17   1.961       .  S
Zn15         O20   2.020       .  S
Zn15         O23   2.012       .  S
Zn15         O26   2.024       .  S
Zn16         O17   1.941       .  S
Zn16         O24   1.990       .  S
Zn16         O27   1.995   1_655  S
Zn16         O28   1.983   1_655  S
O18          C30   1.272       .  A
O19          C31   1.272       .  A
O20          C32   1.274       .  A
O21          C30   1.272       .  A
O22          C32   1.274       .  A
O23          C31   1.274       .  A
O24          C33   1.271       .  A
O25          C34   1.272       .  A
O26          C33   1.273       .  A
O27          C34   1.271       .  A
O28          C35   1.269       .  A
O29          C35   1.272       .  A
C30         C625   1.475       .  S
C31         C593   1.468       .  S
C32         C753   1.484       .  S
C33         C657   1.477       .  S
C34         C858   1.483       .  S
C35         C689   1.463       .  S
C36          N37   1.360       .  A
C36          N41   1.356       .  A
C36         C634   1.478       .  S
N37          C38   1.362       .  A
C38          N39   1.358       .  A
C38         C538   1.493       .  S
N39          C40   1.356       .  A
C40          N41   1.353       .  A
C40         C570   1.470       .  S
C42          N43   1.357       .  A
C42          N47   1.358       .  A
C42         C602   1.472       .  S
N43          C44   1.354       .  A
C44          N45   1.355       .  A
C44         C465   1.465       .  S
N45          C46   1.356       .  A
C46          N47   1.357       .  A
C46         C497   1.480       .  S
Zn48         O52   1.950       .  S
Zn48         O53   1.997       .  S
Zn48         O57   2.011       .  S
Zn48         O64   2.002       .  S
Zn49         O52   1.962       .  S
Zn49         O54   2.023       .  S
Zn49         O56   2.023       .  S
Zn49         O60   2.021       .  S
Zn50         O52   1.950       .  S
Zn50         O55   1.998       .  S
Zn50         O58   2.007       .  S
Zn50         O61   1.999       .  S
Zn51         O52   1.963       .  S
Zn51         O59   2.022       .  S
Zn51         O62   2.010       .  S
Zn51         O63   2.038       .  S
O53          C65   1.272       .  A
O54          C66   1.273       .  A
O55          C67   1.271       .  A
O56          C65   1.274       .  A
O57          C67   1.272       .  A
O58          C66   1.272       .  A
O59          C68   1.275       .  A
O60          C69   1.275       .  A
O61          C68   1.270       .  A
O62          C69   1.273       .  A
O63          C70   1.274       .  A
O64          C70   1.272       .  A
C65         C561   1.470       .  S
C66         C881   1.474       .  S
C67         C401   1.471       .  S
C68         C506   1.493       .  S
C69         C785   1.479       .  S
C70         C433   1.499       .  S
C71          N72   1.361       .  A
C71          N76   1.358       .  A
C71         C369   1.481       .  S
N72          C73   1.358       .  A
C73          N74   1.355       .  A
C73         C337   1.482       .  S
N74          C75   1.352       .  A
C75          N76   1.359       .  A
C75         C410   1.493       .  S
C77          N78   1.360       .  A
C77          N82   1.359       .  A
C77         C314   1.491       .  S
N78          C79   1.357       .  A
C79          N80   1.360       .  A
C79         C273   1.495   1_554  S
N80          C81   1.357       .  A
C81          N82   1.359       .  A
C81         C442   1.484       .  S
Zn83         O87   1.946       .  S
Zn83         O88   1.994       .  S
Zn83         O92   1.993       .  S
Zn83         O99   2.005       .  S
Zn84         O87   1.954       .  S
Zn84         O89   2.006       .  S
Zn84         O91   2.016       .  S
Zn84         O95   2.012       .  S
Zn85         O87   1.967       .  S
Zn85         O90   2.028       .  S
Zn85         O93   2.021       .  S
Zn85         O96   2.019       .  S
Zn86         O87   1.957       .  S
Zn86         O94   2.004       .  S
Zn86         O97   2.007       .  S
Zn86         O98   2.027       .  S
O88         C100   1.270       .  A
O89         C101   1.272       .  A
O90         C102   1.274       .  A
O91         C100   1.273       .  A
O92         C102   1.271       .  A
O93         C101   1.273       .  A
O94         C103   1.274       .  A
O95         C104   1.273       .  A
O96         C103   1.274       .  A
O97         C104   1.272       .  A
O98         C105   1.272       .  A
O99         C105   1.273       .  A
C100        C474   1.473       .  S
C101        C209   1.478       .  S
C102        C282   1.474       .  S
C103        C241   1.482       .  S
C104        C346   1.472       .  S
C105        C529   1.496       .  S
C106        N107   1.362       .  A
C106        N111   1.358       .  A
C106        C250   1.473       .  S
N107        C108   1.359       .  A
C108        N109   1.355       .  A
C108        C186   1.488       .  S
N109        C110   1.352       .  A
C110        N111   1.356       .  A
C110        C698   1.479       .  S
C112        N113   1.360       .  A
C112        N117   1.357       .  A
C112        C218   1.478       .  S
N113        C114   1.360       .  A
C114        N115   1.357       .  A
C114        C145   1.483       .  S
N115        C116   1.355       .  A
C116        N117   1.354       .  A
C116        C666   1.466       .  S
Zn118       O122   1.953       .  S
Zn118       O123   2.014   1_655  S
Zn118       O127   2.014       .  S
Zn118       O134   2.008   1_655  S
Zn119       O122   1.956       .  S
Zn119       O124   2.013       .  S
Zn119       O126   2.015   1_655  S
Zn119       O130   2.002   1_655  S
Zn120       O122   1.958       .  S
Zn120       O125   2.016       .  S
Zn120       O128   2.009       .  S
Zn120       O131   2.011       .  S
Zn121       O122   1.966       .  S
Zn121       O129   2.030       .  S
Zn121       O132   2.031   1_655  S
Zn121       O133   2.028   1_655  S
O123        C135   1.274       .  A
O124        C136   1.274       .  A
O125        C137   1.272       .  A
O126        C135   1.272       .  A
O127        C137   1.273       .  A
O128        C136   1.271       .  A
O129        C138   1.276       .  A
O130        C139   1.273       .  A
O131        C138   1.273       .  A
O132        C139   1.275       .  A
O133        C140   1.275       .  A
O134        C140   1.273       .  A
C135        C826   1.493       .  S
C136        C721   1.487       .  S
C137        C154   1.470       .  S
C138        C305   1.491       .  S
C139        C177   1.483       .  S
C140        C378   1.481       .  S
C141        C142   1.400       .  A
C141        C146   1.403       .  A
C141        H151   1.084       .  S
C142        C147   1.480       .  S
C142        C143   1.409       .  A
C143        C144   1.404       .  A
C143        C148   1.506       .  S
C144        C145   1.406       .  A
C144        H149   1.084       .  S
C145        C146   1.418       .  A
C146        C150   1.509       .  S
C147        C152   1.410       .  A
C147        C156   1.401       .  A
C148        H164   1.110       .  S
C148        H165   1.110       .  S
C148        H166   1.111       .  S
C150        H161   1.111       .  S
C150        H162   1.109       .  S
C150        H163   1.110       .  S
C152        C153   1.403       .  A
C152        C157   1.506       .  S
C153        C154   1.402       .  A
C153        H158   1.084       .  S
C154        C155   1.415       .  A
C155        C156   1.403       .  A
C155        C159   1.509       .  S
C156        H160   1.085       .  S
C157        H167   1.111       .  S
C157        H168   1.110       .  S
C157        H169   1.110       .  S
C159        H170   1.111       .  S
C159        H171   1.107       .  S
C159        H172   1.110       .  S
C173        C174   1.400       .  A
C173        C178   1.405       .  A
C173        H183   1.084       .  S
C174        C179   1.478       .  S
C174        C175   1.408       .  A
C175        C176   1.401       .  A
C175        C180   1.507       .  S
C176        C177   1.407       .  A
C176        H181   1.084       .  S
C177        C178   1.421       .  A
C178        C182   1.509       .  S
C179        C184   1.407   1_554  A
C179        C188   1.400       .  A
C180        H196   1.110       .  S
C180        H197   1.110       .  S
C180        H198   1.111       .  S
C182        H193   1.111   1_455  S
C182        H194   1.110       .  S
C182        H195   1.104   1_455  S
C184        C185   1.399       .  A
C184        C189   1.508       .  S
C185        C186   1.408       .  A
C185        H190   1.084       .  S
C186        C187   1.419       .  A
C187        C188   1.407   1_556  A
C187        C191   1.506       .  S
C188        H192   1.084       .  S
C189        H199   1.111       .  S
C189        H200   1.110       .  S
C189        H201   1.110   1_556  S
C191        H202   1.110       .  S
C191        H203   1.109       .  S
C191        H204   1.111   1_556  S
C205        C206   1.400       .  A
C205        C210   1.403       .  A
C205        H215   1.085       .  S
C206        C211   1.477       .  S
C206        C207   1.408       .  A
C207        C208   1.402       .  A
C207        C212   1.506       .  S
C208        C209   1.406       .  A
C208        H213   1.084       .  S
C209        C210   1.419       .  A
C210        C214   1.509       .  S
C211        C216   1.409       .  A
C211        C220   1.400       .  A
C212        H228   1.110       .  S
C212        H229   1.110       .  S
C212        H230   1.111       .  S
C214        H225   1.111       .  S
C214        H226   1.110       .  S
C214        H227   1.105       .  S
C216        C217   1.401       .  A
C216        C221   1.507       .  S
C217        C218   1.404       .  A
C217        H222   1.084       .  S
C218        C219   1.417       .  A
C219        C220   1.404       .  A
C219        C223   1.508       .  S
C220        H224   1.084       .  S
C221        H231   1.111       .  S
C221        H232   1.110       .  S
C221        H233   1.110       .  S
C223        H234   1.109       .  S
C223        H235   1.110       .  S
C223        H236   1.111       .  S
C237        C238   1.400       .  A
C237        C242   1.405       .  A
C237        H247   1.083       .  S
C238        C243   1.475       .  S
C238        C239   1.408       .  A
C239        C240   1.399       .  A
C239        C244   1.508       .  S
C240        C241   1.406       .  A
C240        H245   1.085       .  S
C241        C242   1.419       .  A
C242        C246   1.508       .  S
C243        C248   1.409       .  A
C243        C252   1.400       .  A
C244        H260   1.110       .  S
C244        H261   1.109       .  S
C244        H262   1.111       .  S
C246        H257   1.111       .  S
C246        H258   1.109       .  S
C246        H259   1.110       .  S
C248        C249   1.402       .  A
C248        C253   1.507       .  S
C249        C250   1.404       .  A
C249        H254   1.084       .  S
C250        C251   1.415       .  A
C251        C252   1.401       .  A
C251        C255   1.507       .  S
C252        H256   1.084       .  S
C253        H263   1.111       .  S
C253        H264   1.110       .  S
C253        H265   1.109       .  S
C255        H266   1.111       .  S
C255        H267   1.107       .  S
C255        H268   1.110       .  S
C269        C270   1.398       .  A
C269        C274   1.407       .  A
C269        H279   1.084       .  S
C270        C275   1.479       .  S
C270        C271   1.407       .  A
C271        C272   1.400       .  A
C271        C276   1.508       .  S
C272        C273   1.409       .  A
C272        H277   1.083       .  S
C273        C274   1.425       .  A
C274        C278   1.508       .  S
C275        C280   1.408       .  A
C275        C284   1.401       .  A
C276        H292   1.110       .  S
C276        H293   1.110       .  S
C276        H294   1.111       .  S
C278        H289   1.111       .  S
C278        H290   1.109       .  S
C278        H291   1.110       .  S
C280        C281   1.401       .  A
C280        C285   1.506       .  S
C281        C282   1.405       .  A
C281        H286   1.085       .  S
C282        C283   1.417       .  A
C283        C284   1.403       .  A
C283        C287   1.508       .  S
C284        H288   1.084       .  S
C285        H295   1.111       .  S
C285        H296   1.110       .  S
C285        H297   1.110       .  S
C287        H298   1.110       .  S
C287        H299   1.105       .  S
C287        H300   1.111       .  S
C301        C302   1.399       .  A
C301        C306   1.405       .  A
C301        H311   1.084       .  S
C302        C307   1.482       .  S
C302        C303   1.408       .  A
C303        C304   1.404       .  A
C303        C308   1.506       .  S
C304        C305   1.408       .  A
C304        H309   1.083       .  S
C305        C306   1.422       .  A
C306        C310   1.509       .  S
C307        C312   1.408       .  A
C307        C316   1.400       .  A
C308        H324   1.110       .  S
C308        H325   1.110       .  S
C308        H326   1.111       .  S
C310        H321   1.109       .  S
C310        H322   1.111       .  S
C310        H323   1.110       .  S
C312        C313   1.402       .  A
C312        C317   1.507       .  S
C313        C314   1.408       .  A
C313        H318   1.083       .  S
C314        C315   1.421       .  A
C315        C316   1.407       .  A
C315        C319   1.507       .  S
C316        H320   1.084       .  S
C317        H327   1.111       .  S
C317        H328   1.110       .  S
C317        H329   1.110       .  S
C319        H330   1.109       .  S
C319        H331   1.110       .  S
C319        H332   1.111       .  S
C333        C334   1.402       .  A
C333        C338   1.406       .  A
C333        H343   1.084       .  S
C334        C339   1.479       .  S
C334        C335   1.410       .  A
C335        C336   1.398       .  A
C335        C340   1.509       .  S
C336        C337   1.405       .  A
C336        H341   1.083       .  S
C337        C338   1.417       .  A
C338        C342   1.507       .  S
C339        C344   1.411       .  A
C339        C348   1.401       .  A
C340        H356   1.109       .  S
C340        H357   1.110       .  S
C340        H358   1.111       .  S
C342        H353   1.111       .  S
C342        H354   1.109       .  S
C342        H355   1.111       .  S
C344        C345   1.402       .  A
C344        C349   1.507       .  S
C345        C346   1.403       .  A
C345        H350   1.084       .  S
C346        C347   1.415       .  A
C347        C348   1.401       .  A
C347        C351   1.508       .  S
C348        H352   1.084       .  S
C349        H359   1.111       .  S
C349        H360   1.110       .  S
C349        H361   1.110       .  S
C351        H362   1.111       .  S
C351        H363   1.107       .  S
C351        H364   1.110       .  S
C365        C366   1.400       .  A
C365        C370   1.406       .  A
C365        H375   1.084       .  S
C366        C371   1.480       .  S
C366        C367   1.410       .  A
C367        C368   1.401       .  A
C367        C372   1.507       .  S
C368        C369   1.404       .  A
C368        H373   1.084       .  S
C369        C370   1.418       .  A
C370        C374   1.508       .  S
C371        C376   1.409       .  A
C371        C380   1.400       .  A
C372        H388   1.110       .  S
C372        H389   1.110       .  S
C372        H390   1.111       .  S
C374        H385   1.111       .  S
C374        H386   1.109       .  S
C374        H387   1.110       .  S
C376        C377   1.402       .  A
C376        C381   1.507       .  S
C377        C378   1.406       .  A
C377        H382   1.084       .  S
C378        C379   1.420       .  A
C379        C380   1.404       .  A
C379        C383   1.509       .  S
C380        H384   1.085       .  S
C381        H391   1.111       .  S
C381        H392   1.110       .  S
C381        H393   1.110       .  S
C383        H394   1.110       .  S
C383        H395   1.105       .  S
C383        H396   1.111       .  S
C397        C398   1.400       .  A
C397        C402   1.401       .  A
C397        H407   1.085       .  S
C398        C403   1.473       .  S
C398        C399   1.407       .  A
C399        C400   1.400       .  A
C399        C404   1.506       .  S
C400        C401   1.405       .  A
C400        H405   1.085       .  S
C401        C402   1.417       .  A
C402        C406   1.509       .  S
C403        C408   1.405       .  A
C403        C412   1.396       .  A
C404        H420   1.110       .  S
C404        H421   1.110       .  S
C404        H422   1.111       .  S
C406        H417   1.110       .  S
C406        H418   1.111       .  S
C406        H419   1.106       .  S
C408        C409   1.401       .  A
C408        C413   1.506       .  S
C409        C410   1.411       .  A
C409        H414   1.083       .  S
C410        C411   1.427       .  A
C411        C412   1.402       .  A
C411        C415   1.510       .  S
C412        H416   1.085       .  S
C413        H423   1.111       .  S
C413        H424   1.110       .  S
C413        H425   1.110       .  S
C415        H426   1.111       .  S
C415        H427   1.109       .  S
C415        H428   1.110       .  S
C429        C430   1.400       .  A
C429        C434   1.409       .  A
C429        H439   1.084       .  S
C430        C435   1.482       .  S
C430        C431   1.407       .  A
C431        C432   1.400       .  A
C431        C436   1.508       .  S
C432        C433   1.411       .  A
C432        H437   1.083       .  S
C433        C434   1.424       .  A
C434        C438   1.507       .  S
C435        C440   1.409       .  A
C435        C444   1.399       .  A
C436        H452   1.110       .  S
C436        H453   1.110       .  S
C436        H454   1.111       .  S
C438        H449   1.110       .  S
C438        H450   1.111       .  S
C438        H451   1.110       .  S
C440        C441   1.405       .  A
C440        C445   1.506       .  S
C441        C442   1.408       .  A
C441        H446   1.084       .  S
C442        C443   1.420       .  A
C443        C444   1.403       .  A
C443        C447   1.509       .  S
C444        H448   1.085       .  S
C445        H455   1.111       .  S
C445        H456   1.110       .  S
C445        H457   1.110       .  S
C447        H458   1.110       .  S
C447        H459   1.104       .  S
C447        H460   1.111       .  S
C461        C462   1.401       .  A
C461        C466   1.399       .  A
C461        H471   1.085       .  S
C462        C467   1.476       .  S
C462        C463   1.411       .  A
C463        C464   1.402       .  A
C463        C468   1.506       .  S
C464        C465   1.401       .  A
C464        H469   1.085       .  S
C465        C466   1.413       .  A
C466        C470   1.508       .  S
C467        C472   1.410       .  A
C467        C476   1.400       .  A
C468        H484   1.110       .  S
C468        H485   1.110       .  S
C468        H486   1.111       .  S
C470        H481   1.110       .  S
C470        H482   1.110       .  S
C470        H483   1.108       .  S
C472        C473   1.400       .  A
C472        C477   1.507       .  S
C473        C474   1.403       .  A
C473        H478   1.085       .  S
C474        C475   1.419       .  A
C475        C476   1.402       .  A
C475        C479   1.509       .  S
C476        H480   1.085       .  S
C477        H487   1.111       .  S
C477        H488   1.109       .  S
C477        H489   1.110       .  S
C479        H490   1.111       .  S
C479        H491   1.106       .  S
C479        H492   1.110       .  S
C493        C494   1.398       .  A
C493        C498   1.400       .  A
C493        H503   1.085       .  S
C494        C499   1.474       .  S
C494        C495   1.408       .  A
C495        C496   1.403       .  A
C495        C500   1.506       .  S
C496        C497   1.408       .  A
C496        H501   1.084       .  S
C497        C498   1.418       .  A
C498        C502   1.509       .  S
C499        C504   1.406       .  A
C499        C508   1.396       .  A
C500        H516   1.110       .  S
C500        H517   1.110       .  S
C500        H518   1.111       .  S
C502        H513   1.111       .  S
C502        H514   1.109       .  S
C502        H515   1.110       .  S
C504        C505   1.402       .  A
C504        C509   1.506       .  S
C505        C506   1.411       .  A
C505        H510   1.083       .  S
C506        C507   1.426       .  A
C507        C508   1.402       .  A
C507        C511   1.509       .  S
C508        H512   1.085       .  S
C509        H519   1.111       .  S
C509        H520   1.110       .  S
C509        H521   1.110       .  S
C511        H522   1.111       .  S
C511        H523   1.110       .  S
C511        H524   1.110       .  S
C525        C526   1.399       .  A
C525        C530   1.408       .  A
C525        H535   1.085       .  S
C526        C531   1.480       .  S
C526        C527   1.407       .  A
C527        C528   1.400       .  A
C527        C532   1.508       .  S
C528        C529   1.410       .  A
C528        H533   1.084       .  S
C529        C530   1.424       .  A
C530        C534   1.508       .  S
C531        C536   1.407       .  A
C531        C540   1.398       .  A
C532        H548   1.110       .  S
C532        H549   1.110       .  S
C532        H550   1.111       .  S
C534        H545   1.110       .  S
C534        H546   1.111       .  S
C534        H547   1.110       .  S
C536        C537   1.404       .  A
C536        C541   1.506       .  S
C537        C538   1.410       .  A
C537        H542   1.083       .  S
C538        C539   1.424       .  A
C539        C540   1.404       .  A
C539        C543   1.509       .  S
C540        H544   1.085       .  S
C541        H551   1.111       .  S
C541        H552   1.110       .  S
C541        H553   1.110       .  S
C543        H554   1.110       .  S
C543        H555   1.109       .  S
C543        H556   1.111       .  S
C557        C558   1.399       .  A
C557        C562   1.399       .  A
C557        H567   1.085       .  S
C558        C563   1.476       .  S
C558        C559   1.410       .  A
C559        C560   1.405       .  A
C559        C564   1.506       .  S
C560        C561   1.404       .  A
C560        H565   1.084       .  S
C561        C562   1.416       .  A
C562        C566   1.509       .  S
C563        C568   1.410   1_554  A
C563        C572   1.401       .  A
C564        H580   1.110       .  S
C564        H581   1.110       .  S
C564        H582   1.111       .  S
C566        H577   1.111       .  S
C566        H578   1.110       .  S
C566        H579   1.107       .  S
C568        C569   1.402       .  A
C568        C573   1.506   1_556  S
C569        C570   1.403       .  A
C569        H574   1.084       .  S
C570        C571   1.414       .  A
C571        C572   1.401   1_556  A
C571        C575   1.507       .  S
C572        H576   1.085       .  S
C573        H583   1.111   1_554  S
C573        H584   1.110       .  S
C573        H585   1.109       .  S
C575        H586   1.110       .  S
C575        H587   1.108       .  S
C575        H588   1.111   1_556  S
C589        C590   1.398       .  A
C589        C594   1.399       .  A
C589        H599   1.084       .  S
C590        C595   1.472       .  S
C590        C591   1.409       .  A
C591        C592   1.401       .  A
C591        C596   1.506       .  S
C592        C593   1.403       .  A
C592        H597   1.084       .  S
C593        C594   1.417       .  A
C594        C598   1.509       .  S
C595        C600   1.408       .  A
C595        C604   1.399       .  A
C596        H612   1.110       .  S
C596        H613   1.110       .  S
C596        H614   1.111       .  S
C598        H609   1.111       .  S
C598        H610   1.110       .  S
C598        H611   1.106       .  S
C600        C601   1.399       .  A
C600        C605   1.507       .  S
C601        C602   1.404       .  A
C601        H606   1.084       .  S
C602        C603   1.418       .  A
C603        C604   1.400       .  A
C603        C607   1.509       .  S
C604        H608   1.085       .  S
C605        H615   1.111       .  S
C605        H616   1.110       .  S
C605        H617   1.110       .  S
C607        H618   1.111       .  S
C607        H619   1.106       .  S
C607        H620   1.110       .  S
C621        C622   1.399       .  A
C621        C626   1.402       .  A
C621        H631   1.084       .  S
C622        C627   1.476       .  S
C622        C623   1.409       .  A
C623        C624   1.401       .  A
C623        C628   1.507       .  S
C624        C625   1.405       .  A
C624        H629   1.084       .  S
C625        C626   1.420       .  A
C626        C630   1.510       .  S
C627        C632   1.408       .  A
C627        C636   1.399       .  A
C628        H644   1.110       .  S
C628        H645   1.110       .  S
C628        H646   1.111       .  S
C630        H641   1.110       .  S
C630        H642   1.111       .  S
C630        H643   1.104       .  S
C632        C633   1.403       .  A
C632        C637   1.506       .  S
C633        C634   1.405       .  A
C633        H638   1.085       .  S
C634        C635   1.418       .  A
C635        C636   1.401       .  A
C635        C639   1.509       .  S
C636        H640   1.085       .  S
C637        H647   1.111       .  S
C637        H648   1.110       .  S
C637        H649   1.110       .  S
C639        H650   1.111       .  S
C639        H651   1.110       .  S
C639        H652   1.109       .  S
C653        C654   1.401       .  A
C653        C658   1.405       .  A
C653        H663   1.085       .  S
C654        C659   1.477       .  S
C654        C655   1.408       .  A
C655        C656   1.398       .  A
C655        C660   1.507       .  S
C656        C657   1.405       .  A
C656        H661   1.084       .  S
C657        C658   1.419       .  A
C658        C662   1.508       .  S
C659        C664   1.410       .  A
C659        C668   1.401   1_565  A
C660        H676   1.110       .  S
C660        H677   1.110       .  S
C660        H678   1.111       .  S
C662        H673   1.110       .  S
C662        H674   1.111       .  S
C662        H675   1.105       .  S
C664        C665   1.403       .  A
C664        C669   1.506       .  S
C665        C666   1.401   1_565  A
C665        H670   1.084       .  S
C666        C667   1.413       .  A
C667        C668   1.400       .  A
C667        C671   1.508       .  S
C668        H672   1.084       .  S
C669        H679   1.111       .  S
C669        H680   1.110       .  S
C669        H681   1.110       .  S
C671        H682   1.110       .  S
C671        H683   1.108       .  S
C671        H684   1.110       .  S
C685        C686   1.400       .  A
C685        C690   1.398       .  A
C685        H695   1.085       .  S
C686        C691   1.473       .  S
C686        C687   1.410       .  A
C687        C688   1.402       .  A
C687        C692   1.506       .  S
C688        C689   1.402       .  A
C688        H693   1.085       .  S
C689        C690   1.414       .  A
C690        C694   1.510   1_455  S
C691        C696   1.409       .  A
C691        C700   1.398       .  A
C692        H708   1.109       .  S
C692        H709   1.110       .  S
C692        H710   1.111       .  S
C694        H705   1.110       .  S
C694        H706   1.111       .  S
C694        H707   1.107       .  S
C696        C697   1.402   1_565  A
C696        C701   1.507       .  S
C697        C698   1.406       .  A
C697        H702   1.084       .  S
C698        C699   1.419   1_545  A
C699        C700   1.399       .  A
C699        C703   1.509       .  S
C700        H704   1.084       .  S
C701        H711   1.111   1_565  S
C701        H712   1.110       .  S
C701        H713   1.110       .  S
C703        H714   1.109   1_565  S
C703        H715   1.110       .  S
C703        H716   1.111       .  S
C717        C718   1.399   1_545  A
C717        C722   1.404       .  A
C717        H727   1.084       .  S
C718        C723   1.477       .  S
C718        C719   1.409       .  A
C719        C720   1.401   1_565  A
C719        C724   1.507       .  S
C720        C721   1.407       .  A
C720        H725   1.084       .  S
C721        C722   1.422       .  A
C722        C726   1.508       .  S
C723        C728   1.410       .  A
C723        C732   1.400       .  A
C724        H740   1.110       .  S
C724        H741   1.110       .  S
C724        H742   1.111       .  S
C726        H737   1.111       .  S
C726        H738   1.110       .  S
C726        H739   1.110       .  S
C728        C729   1.402       .  A
C728        C733   1.506       .  S
C729        C730   1.402       .  A
C729        H734   1.085       .  S
C730        C731   1.415       .  A
C731        C732   1.402       .  A
C731        C735   1.507       .  S
C732        H736   1.084       .  S
C733        H743   1.111       .  S
C733        H744   1.110       .  S
C733        H745   1.110       .  S
C735        H746   1.111       .  S
C735        H747   1.108       .  S
C735        H748   1.110       .  S
C749        C750   1.400       .  A
C749        C754   1.404       .  A
C749        H759   1.085       .  S
C750        C755   1.479       .  S
C750        C751   1.409       .  A
C751        C752   1.402       .  A
C751        C756   1.507       .  S
C752        C753   1.407       .  A
C752        H757   1.084       .  S
C753        C754   1.420       .  A
C754        C758   1.508       .  S
C755        C760   1.411       .  A
C755        C764   1.401       .  A
C756        H772   1.110       .  S
C756        H773   1.110       .  S
C756        H774   1.111       .  S
C758        H769   1.110       .  S
C758        H770   1.111       .  S
C758        H771   1.106       .  S
C760        C761   1.403       .  A
C760        C765   1.506       .  S
C761        C762   1.402   1_556  A
C761        H766   1.084       .  S
C762        C763   1.415       .  A
C763        C764   1.402   1_554  A
C763        C767   1.508       .  S
C764        H768   1.084       .  S
C765        H775   1.111       .  S
C765        H776   1.110       .  S
C765        H777   1.110       .  S
C767        H778   1.110       .  S
C767        H779   1.107       .  S
C767        H780   1.111       .  S
C781        C782   1.400       .  A
C781        C786   1.403       .  A
C781        H791   1.085       .  S
C782        C787   1.479       .  S
C782        C783   1.409       .  A
C783        C784   1.403       .  A
C783        C788   1.506       .  S
C784        C785   1.406       .  A
C784        H789   1.083       .  S
C785        C786   1.419       .  A
C786        C790   1.509       .  S
C787        C792   1.407       .  A
C787        C796   1.398       .  A
C788        H804   1.110       .  S
C788        H805   1.110       .  S
C788        H806   1.111       .  S
C790        H801   1.111       .  S
C790        H802   1.110       .  S
C790        H803   1.107       .  S
C792        C793   1.404       .  A
C792        C797   1.506       .  S
C793        C794   1.409       .  A
C793        H798   1.084       .  S
C794        C795   1.422       .  A
C795        C796   1.404       .  A
C795        C799   1.508       .  S
C796        H800   1.085       .  S
C797        H807   1.111       .  S
C797        H808   1.110       .  S
C797        H809   1.110       .  S
C799        H810   1.111       .  S
C799        H811   1.109       .  S
C799        H812   1.109       .  S
C813        C814   1.401       .  A
C813        C818   1.406       .  A
C813        H823   1.084       .  S
C814        C819   1.479       .  S
C814        C815   1.408       .  A
C815        C816   1.399       .  A
C815        C820   1.508       .  S
C816        C817   1.405       .  A
C816        H821   1.083       .  S
C817        C818   1.420       .  A
C818        C822   1.508       .  S
C819        C824   1.407   1_565  A
C819        C828   1.399       .  A
C820        H836   1.110       .  S
C820        H837   1.110       .  S
C820        H838   1.111       .  S
C822        H833   1.111       .  S
C822        H834   1.110       .  S
C822        H835   1.106       .  S
C824        C825   1.402       .  A
C824        C829   1.507       .  S
C825        C826   1.410       .  A
C825        H830   1.084       .  S
C826        C827   1.423       .  A
C827        C828   1.405   1_545  A
C827        C831   1.508   1_545  S
C828        H832   1.084       .  S
C829        H839   1.111       .  S
C829        H840   1.110       .  S
C829        H841   1.110       .  S
C831        H842   1.111       .  S
C831        H843   1.110   1_565  S
C831        H844   1.110       .  S
C845        C846   1.398       .  A
C845        C850   1.402       .  A
C845        H855   1.084       .  S
C846        C851   1.477       .  S
C846        C847   1.406       .  A
C847        C848   1.404       .  A
C847        C852   1.506       .  S
C848        C849   1.409       .  A
C848        H853   1.082       .  S
C849        C850   1.422       .  A
C850        C854   1.508       .  S
C851        C856   1.408       .  A
C851        C860   1.401       .  A
C852        H868   1.110       .  S
C852        H869   1.110       .  S
C852        H870   1.111       .  S
C854        H865   1.111       .  S
C854        H866   1.110       .  S
C854        H867   1.109       .  S
C856        C857   1.399       .  A
C856        C861   1.508       .  S
C857        C858   1.406       .  A
C857        H862   1.084       .  S
C858        C859   1.418       .  A
C859        C860   1.406       .  A
C859        C863   1.507       .  S
C860        H864   1.084       .  S
C861        H871   1.111       .  S
C861        H872   1.110       .  S
C861        H873   1.110       .  S
C863        H874   1.110   1_455  S
C863        H875   1.110       .  S
C863        H876   1.111       .  S
C877        C878   1.401       .  A
C877        C882   1.403       .  A
C877        H887   1.084       .  S
C878        C883   1.478       .  S
C878        C879   1.410       .  A
C879        C880   1.403       .  A
C879        C884   1.507       .  S
C880        C881   1.403       .  A
C880        H885   1.084       .  S
C881        C882   1.417       .  A
C882        C886   1.508       .  S
C883        C888   1.409       .  A
C883        C892   1.399       .  A
C884        H900   1.110       .  S
C884        H901   1.109       .  S
C884        H902   1.111       .  S
C886        H897   1.111       .  S
C886        H898   1.110       .  S
C886        H899   1.107       .  S
C888        C889   1.402       .  A
C888        C893   1.507       .  S
C889        C890   1.405       .  A
C889        H894   1.084       .  S
C890        C891   1.418       .  A
C891        C892   1.404       .  A
C891        C895   1.507       .  S
C892        H896   1.084       .  S
C893        H903   1.111       .  S
C893        H904   1.110       .  S
C893        H905   1.109       .  S
C895        H906   1.108       .  S
C895        H907   1.110       .  S
C895        H908   1.111       .  S
