geometry optimzed in LAMMPS
_audit_creation_date              2020-11-30 
_audit_creation_method            'lammps2cif' 
_symmetry_space_group_name_H-M    'P1' 
_symmetry_Int_Tables_number       1 
_symmetry_cell_setting            triclinic 
loop_ 
_symmetry_equiv_pos_as_xyz 
  x,y,z 
_cell_length_a                    39.03850199587517 
_cell_length_b                    38.882600129448576 
_cell_length_c                    29.630837145174382 
_cell_angle_alpha                 88.63308654325685 
_cell_angle_beta                  94.41688814749072 
_cell_angle_gamma                 120.22732104000221 
loop_ 
_atom_site_label 
_atom_site_type_symbol 
_atom_site_fract_x 
_atom_site_fract_y 
_atom_site_fract_z 
_atom_site_charge 
O1          O  0.40217937  0.13673144  0.30387117    -0.81120
O2          O  0.30903127  0.18817828  0.41830370    -0.65810
O3          O  0.33467146  0.13530298  0.33166000    -1.12410
C4          C  0.37040785  0.25233782  0.24753167     1.05770
O5          O  0.27631675  0.20365757  0.36537452    -0.79010
O6          O  0.27310508  0.18360890  0.27981206    -0.66600
Ni7        Ni  0.36546540  0.11110913  0.34970869     1.34870
C8          C  0.27557432  0.15850354  0.25589307     0.84510
O9          O  0.30001908  0.11542040  0.41535304    -0.79550
O10         O  0.32991872  0.08200160  0.39559061    -0.89830
C11         C  0.28610729  0.20153098  0.40666052     0.84080
O12         O  0.40302502  0.15154809  0.39174300    -0.68030
O13         O  0.34444851  0.25436647  0.26909788    -0.87320
C14         C  0.40194679  0.17812889  0.41457626     0.84910
C15         C  0.30560706  0.08582622  0.41836221     1.06480
H16         H  0.36859699  0.22619753  0.35027744     0.38280
O17         O  0.34396419  0.20484186  0.33635475    -1.09980
O18         O  0.30678690  0.15611627  0.25573109    -0.66630
Ni19       Ni  0.35693116  0.17938473  0.29144774     1.26350
O20         O  0.37250770  0.18371867  0.41199167    -0.66860
O21         O  0.37899248  0.22482975  0.25273071    -0.79150
C22         C  0.39191078  0.13728213  0.26230590     0.84290
O23         O  0.37024232  0.15192978  0.24991510    -0.66330
Ni24       Ni  0.31139516  0.22708484  0.31766527     1.27450
Ni25       Ni  0.32214979  0.16083720  0.37665134     1.26060
H26         H  0.30982125  0.11442552  0.31772630     0.38840
C27         C  0.20536136  0.34205015  0.16733704     0.02060
C28         C  0.20523675  0.37803110  0.16980822     0.02060
C29         C  0.16887955  0.37779752  0.16823479     0.02060
C30         C  0.13231606  0.34112854  0.16581696     0.02060
C31         C  0.13281716  0.30483011  0.16658012     0.02060
C32         C  0.16942814  0.30557988  0.16663167     0.02060
O33         O  0.20634243  0.11429437  0.23964433    -0.74650
O34         O  0.11513562  0.06200479  0.15413459    -0.74680
O35         O  0.16298439  0.03951125  0.20114851    -0.74740
O36         O  0.15806973  0.13502675  0.19344269    -0.74790
O37         O  0.20010375  0.15664569  0.13886928    -0.74720
O38         O  0.20070246  0.05819090  0.14245183    -0.74700
O39         O  0.15580903  0.08478448  0.09809826    -0.74670
O40         O  0.24633759  0.13145045  0.18316324    -0.74740
Ni41       Ni  0.15924564  0.08679396  0.19921363     1.25410
Ni42       Ni  0.20223902  0.10837174  0.13870411     1.25360
C43         C  0.24118128  0.13274093  0.22503445     0.87530
C44         C  0.12077000  0.06608690  0.11180364     0.87460
C45         C  0.18146284  0.03244686  0.17217328     0.87490
C46         C  0.17846658  0.16174360  0.16531546     0.87660
O47         O  0.44886286  0.40739702  0.14910253    -0.74650
O48         O  0.41029944  0.32034624  0.23121329    -0.74680
O49         O  0.47921438  0.36428472  0.19042051    -0.74740
O50         O  0.38096510  0.36320360  0.19055428    -0.74790
O51         O  0.35566842  0.31927844  0.13295739    -0.74720
O52         O  0.45561451  0.32238013  0.13135483    -0.74700
O53         O  0.38718923  0.27694918  0.17320042    -0.74670
O54         O  0.42243359  0.36430511  0.09078353    -0.74740
Ni55       Ni  0.43093900  0.36534089  0.19229685     1.25410
Ni56       Ni  0.40459203  0.31919005  0.12988901     1.25360
C57         C  0.44007188  0.40005551  0.10656619     0.87530
C58         C  0.39122282  0.28449930  0.21575520     0.87460
C59         C  0.48381673  0.34335736  0.16141664     0.87490
C60         C  0.35205614  0.34074870  0.16227431     0.87660
O61         O  0.39860498  0.12378970  0.18641244    -0.74650
O62         O  0.42690079  0.07090883  0.10154374    -0.74680
O63         O  0.36232583  0.05125834  0.14592117    -0.74740
O64         O  0.46363313  0.14446466  0.14102285    -0.74790
O65         O  0.48774768  0.12396529  0.19978416    -0.74720
O66         O  0.38630121  0.02763828  0.20121870    -0.74700
O67         O  0.45357616  0.05110610  0.15834040    -0.74670
O68         O  0.42148638  0.10013708  0.24305508    -0.74740
Ni69       Ni  0.41215324  0.09848634  0.14169846     1.25410
Ni70       Ni  0.43820306  0.07490142  0.20265535     1.25360
C71         C  0.40499077  0.12006057  0.22884604     0.87530
C72         C  0.44438658  0.05192922  0.11611151     0.87460
C73         C  0.35755563  0.02365112  0.17339780     0.87490
C74         C  0.49194174  0.15008924  0.17013055     0.87660
O75         O  0.02445185  0.26257830  0.57075331    -0.74650
O76         O  0.43211032  0.20404329  0.48815249    -0.74680
O77         O  0.48367021  0.18650937  0.53474386    -0.74740
O78         O  0.47308520  0.27915535  0.52466230    -0.74790
O79         O  0.01089784  0.29898935  0.46595004    -0.74720
O80         O  0.02240493  0.20691179  0.47703229    -0.74700
O81         O  0.47088573  0.22320745  0.43035990    -0.74670
O82         O  0.06295715  0.28240630  0.51270175    -0.74740
Ni83       Ni  0.47694411  0.23224543  0.53164972     1.25410
Ni84       Ni  0.01816716  0.25364573  0.46946980     1.25360
C85         C  0.05867142  0.28317147  0.55504018     0.87530
C86         C  0.43653088  0.20332346  0.44581455     0.87460
C87         C  0.50359021  0.18070649  0.50644231     0.87490
C88         C  0.49133133  0.30485570  0.49463216     0.87660
O89         O  0.23451084  0.47090327  0.56995320    -0.74650
O90         O  0.28563463  0.06000286  0.49147556    -0.74680
O91         O  0.21328393  0.01911685  0.52628819    -0.74740
O92         O  0.30771812  0.01161710  0.53578090    -0.74790
O93         O  0.28503406  0.47108795  0.47514865    -0.74720
O94         O  0.18922042  0.47658638  0.46768998    -0.74700
O95         O  0.26176510  0.01800587  0.43208711    -0.74670
O96         O  0.21268247  0.42896191  0.51062778    -0.74740
Ni97       Ni  0.26120123  0.01688497  0.53300611     1.25410
Ni98       Ni  0.23630954  0.47219054  0.46924965     1.25360
C99         C  0.21427576  0.43553455  0.55306481     0.87530
C100        C  0.28267013  0.05332211  0.44882703     0.87460
C101        C  0.18496257  0.49791502  0.49670704     0.87490
C102        C  0.31249260  0.49123590  0.50611024     0.87660
C103        C  0.03286786  0.49197387  0.49640295     0.02060
C104        C  0.49633192  0.45576154  0.49702327     0.02060
C105        C  0.46099352  0.45624146  0.50375562     0.02060
C106        C  0.46184559  0.49280248  0.50845381     0.02060
C107        C  0.49819420  0.02890555  0.50678225     0.02060
C108        C  0.03346428  0.02837153  0.50092668     0.02060
O109        O  0.25080798  0.23230529  0.42806290    -0.74650
O110        O  0.21433084  0.27397852  0.51631821    -0.74680
O111        O  0.28121669  0.30274377  0.47218486    -0.74740
O112        O  0.18394705  0.20345363  0.47199917    -0.74790
O113        O  0.21049750  0.18257142  0.52780825    -0.74720
O114        O  0.30820438  0.28115713  0.52637898    -0.74700
O115        O  0.24202704  0.25334633  0.57108266    -0.74670
O116        O  0.27725968  0.21048161  0.48291997    -0.74740
Ni117      Ni  0.23160278  0.25386456  0.47013693     1.25410
Ni118      Ni  0.26041843  0.23107825  0.52899927     1.25360
C119        C  0.27029804  0.21494869  0.44094265     0.87530
C120        C  0.22233132  0.27048470  0.55829175     0.87460
C121        C  0.31087388  0.30832830  0.49913639     0.87490
C122        C  0.18113779  0.17693227  0.50028885     0.87660
O123        O  0.39996698  0.42877896  0.96345369    -0.81120
O124        O  0.05193334  0.02670154  0.08803737    -0.65810
O125        O  0.46698159  0.49813359  0.99670808    -1.12410
C126        C  0.04222039  0.45843010  0.91557139     1.05770
O127        O  0.09437980  0.05830528  0.03646520    -0.79010
O128        O  0.07548883  0.05625502  0.94797408    -0.66600
Ni129      Ni  0.41306049  0.46707538  0.01079713     1.34870
C130        C  0.04622549  0.05442003  0.92404993     0.84510
O131        O  0.48686518  0.03434347  0.08309344    -0.79550
O132        O  0.42203058  0.00424078  0.05816128    -0.89830
C133        C  0.08724790  0.04921157  0.07741703     0.84080
O134        O  0.41862395  0.43126638  0.05209963    -0.68030
O135        O  0.07200293  0.48326144  0.94114536    -0.87320
C136        C  0.44791762  0.43302696  0.07588406     0.84910
C137        C  0.45180689  0.02892282  0.08387311     1.06480
H138        H  0.02417032  0.46464753  0.01537954     0.38280
O139        O  0.02724632  0.48919816  0.00301585    -1.09980
O140        O  0.01116103  0.02490903  0.92396662    -0.66630
Ni141      Ni  0.48611640  0.47534855  0.95573055     1.26350
O142        O  0.48303858  0.46238436  0.07569409    -0.66860
O143        O  0.00713520  0.45283158  0.91658049    -0.79150
C144        C  0.40707949  0.43767667  0.92245716     0.84290
O145        O  0.44229038  0.46054576  0.91180729    -0.66330
Ni146      Ni  0.08112432  0.02023281  0.98882434     1.27450
Ni147      Ni  0.00808118  0.01196054  0.04401090     1.26060
H148        H  0.47007594  0.02268621  0.98434119     0.38840
O149        O  0.21770568  0.28279492  0.63397082    -0.81120
O150        O  0.12530440  0.33592350  0.75035735    -0.65810
O151        O  0.15078220  0.28259514  0.66340340    -1.12410
C152        C  0.19053186  0.40264472  0.58281879     1.05770
O153        O  0.09307104  0.35065663  0.69633831    -0.79010
O154        O  0.09231972  0.33568626  0.60859240    -0.66600
Ni155      Ni  0.18259000  0.25940594  0.68157220     1.34870
C156        C  0.09339158  0.30907184  0.58584428     0.84510
O157        O  0.11603957  0.26271088  0.74729736    -0.79550
O158        O  0.14942342  0.23214691  0.73000597    -0.89830
C159        C  0.10356738  0.35051349  0.73791544     0.84080
O160        O  0.22121842  0.30234547  0.71975135    -0.68030
O161        O  0.16564590  0.40614488  0.60495902    -0.87320
C162        C  0.21925806  0.32777246  0.74364839     0.84910
C163        C  0.12405900  0.23477904  0.75209919     1.06480
H164        H  0.18547763  0.37322301  0.68265050     0.38280
O165        O  0.16065876  0.35237307  0.66861227    -1.09980
O166        O  0.12313601  0.30411325  0.58794745    -0.66630
Ni167      Ni  0.17318035  0.32693804  0.62354233     1.26350
O168        O  0.18845470  0.33088245  0.74387382    -0.66860
O169        O  0.19583491  0.37283296  0.58552804    -0.79090
C170        C  0.20774892  0.28499664  0.59278747     0.84290
O171        O  0.18589481  0.29960322  0.58145155    -0.66330
Ni172      Ni  0.12978751  0.37648811  0.65053452     1.27450
Ni173      Ni  0.13821046  0.30818508  0.70860283     1.26060
H174        H  0.12600941  0.26154136  0.64938055     0.38840
O175        O  0.24843644  0.35333851  0.81657243    -0.74650
O176        O  0.33864986  0.40120065  0.90163414    -0.74680
O177        O  0.29264168  0.42645657  0.85711447    -0.74740
O178        O  0.29579034  0.32933873  0.86060103    -0.74790
O179        O  0.33724814  0.35168433  0.80536111    -0.74720
O180        O  0.33140071  0.44646712  0.79957804    -0.74700
O181        O  0.37946569  0.42423820  0.84573774    -0.74670
O182        O  0.28846603  0.37213859  0.75995988    -0.74740
Ni183      Ni  0.29238402  0.37692054  0.86093094     1.25410
Ni184      Ni  0.33551217  0.39954545  0.80054009     1.25360
C185        C  0.25365570  0.35300864  0.77460047     0.87530
C186        C  0.37369599  0.42023520  0.88802879     0.87460
C187        C  0.31236056  0.45299565  0.82831303     0.87490
C188        C  0.31744153  0.32483850  0.83359183     0.87660
C189        C  0.28929690  0.14507370  0.82623483     0.02060
C190        C  0.32568332  0.18118288  0.82846186     0.02060
C191        C  0.36193302  0.18131411  0.82945482     0.02060
C192        C  0.36201571  0.14495949  0.82923316     0.02060
C193        C  0.32522576  0.10845636  0.82608318     0.02060
C194        C  0.28894774  0.10874088  0.82415751     0.02060
O195        O  0.04429523  0.08015411  0.85109754    -0.74650
O196        O  0.08421197  0.16692764  0.76871871    -0.74680
O197        O  0.11242671  0.12296308  0.80945139    -0.74740
O198        O  0.01530018  0.12472778  0.80964821    -0.74790
O199        O  0.03955046  0.16551106  0.87005599    -0.74720
O200        O  0.13899977  0.16794164  0.86585091    -0.74700
O201        O  0.10730641  0.21047777  0.82658695    -0.74670
O202        O  0.07282469  0.12329486  0.90921782    -0.74740
Ni203      Ni  0.06290214  0.12212142  0.80775633     1.25410
Ni204      Ni  0.09034781  0.16835534  0.87010033     1.25360
C205        C  0.05409537  0.08749270  0.89350978     0.87530
C206        C  0.10326627  0.20279665  0.78404576     0.87460
C207        C  0.14189645  0.14550995  0.83718154     0.87490
C208        C  0.01145217  0.14553900  0.83956572     0.87660
O209        O  0.07250962  0.38640657  0.75684752    -0.74650
O210        O  0.04016891  0.43567180  0.84117137    -0.74680
O211        O  0.10665954  0.45957374  0.79644590    -0.74740
O212        O  0.00697776  0.36213789  0.80150293    -0.74790
O213        O  0.03295229  0.34280252  0.85944092    -0.74720
O214        O  0.13241046  0.43888131  0.85331247    -0.74700
O215        O  0.06765619  0.41689431  0.89814360    -0.74670
O216        O  0.09822916  0.36570856  0.81370611    -0.74740
Ni217      Ni  0.05557347  0.41168253  0.79699985     1.25410
Ni218      Ni  0.08360327  0.39027257  0.85821431     1.25360
C219        C  0.09050607  0.36794040  0.77124664     0.87530
C220        C  0.04969173  0.43536174  0.88342087     0.87460
C221        C  0.13585697  0.46513970  0.82437440     0.87490
C222        C  0.00406310  0.33599401  0.83054088     0.87660
C223        C  0.40070188  0.14546865  0.83308074    -0.00380
C224        C  0.42387661  0.15710015  0.79571110    -0.12260
C225        C  0.46016932  0.15780368  0.79759792     0.01860
C226        C  0.47421687  0.14707318  0.83768965    -0.00470
C227        C  0.45184559  0.13683118  0.87572982    -0.12190
C228        C  0.41522964  0.13579535  0.87363943     0.01740
H229        H  0.41340902  0.16542835  0.76476881     0.14720
H230        H  0.46261429  0.12890708  0.90679257     0.14720
C231        C  0.39327541  0.12515610  0.91357775     0.36370
C232        C  0.98318272  0.17098484  0.75841061     0.36280
N233        N  0.37564619  0.11660600  0.94559254    -0.43970
N234        N  0.00177509  0.18175658  0.72714609    -0.43970
C235        C  0.17983489  0.14579427  0.83527361    -0.00380
C236        C  0.19139639  0.14176813  0.79287470    -0.12260
C237        C  0.22698695  0.14191541  0.78907938     0.01860
C238        C  0.25138505  0.14536552  0.82829826    -0.00470
C239        C  0.23977037  0.14904209  0.87072578    -0.12190
C240        C  0.20451326  0.14957545  0.87453539     0.01740
H241        H  0.17284153  0.13913364  0.76245444     0.14720
H242        H  0.25829936  0.15126826  0.90100122     0.14720
C243        C  0.19366304  0.15238992  0.91920800     0.36370
C244        C  0.23797066  0.13909322  0.74454230     0.36280
N245        N  0.18493661  0.15456724  0.95503099    -0.43970
N246        N  0.24633326  0.13699296  0.70849730    -0.43970
C247        C  0.17430735  0.00239928  0.82395624    -0.00380
C248        C  0.19357731  0.01438941  0.78368027    -0.12260
C249        C  0.23148282  0.04824283  0.78312058     0.01860
C250        C  0.25010448  0.07095257  0.82322352    -0.00470
C251        C  0.23065317  0.05900040  0.86332976    -0.12190
C252        C  0.19312668  0.02502825  0.86405400     0.01740
H253        H  0.17936010  0.49680614  0.75290639     0.14720
H254        H  0.24486065  0.07653465  0.89413817     0.14720
C255        C  0.17407571  0.01476345  0.90609903     0.36370
C256        C  0.25041375  0.05905080  0.74106929     0.36280
N257        N  0.15901467  0.00678408  0.93992323    -0.43970
N258        N  0.26514161  0.06732640  0.70703057    -0.43970
C259        C  0.39971044  0.22008383  0.83069623    -0.00380
C260        C  0.41476740  0.23774728  0.78963705    -0.12260
C261        C  0.44826897  0.27575797  0.78881473     0.01860
C262        C  0.46745143  0.29667679  0.82986472    -0.00470
C263        C  0.45280767  0.27858265  0.87105903    -0.12190
C264        C  0.41893480  0.24068486  0.87172022     0.01740
H265        H  0.40013555  0.22176608  0.75808467     0.14720
H266        H  0.46757994  0.29429761  0.90274198     0.14720
C267        C  0.40404575  0.22374648  0.91469790     0.36370
C268        C  0.46327449  0.29178543  0.74552253     0.36280
N269        N  0.39202285  0.21028272  0.94917456    -0.43970
N270        N  0.47534724  0.30454433  0.71083514    -0.43970
C271        C  0.31456873  0.49237923  0.82841877    -0.00380
C272        C  0.32967710  0.01729226  0.79106526    -0.12260
C273        C  0.33414400  0.05532264  0.78987965     0.01860
C274        C  0.32401125  0.06955630  0.82690891    -0.00470
C275        C  0.30943832  0.04514508  0.86446288    -0.12190
C276        C  0.30414758  0.50678060  0.86542193     0.01740
H277        H  0.33770356  0.00693380  0.76221806     0.14720
H278        H  0.30158562  0.05602821  0.89301312     0.14720
C279        C  0.28823909  0.48342194  0.90507551     0.36370
C280        C  0.34789333  0.07844607  0.74959559     0.36280
N281        N  0.27528007  0.46487132  0.93691020    -0.43970
N282        N  0.35880917  0.09661999  0.71703395    -0.43970
C283        C  0.31955305  0.28807907  0.83370256    -0.00380
C284        C  0.32310604  0.27387846  0.79218569    -0.12260
C285        C  0.32570279  0.23950218  0.78992998     0.01860
C286        C  0.32545600  0.21911103  0.82984664    -0.00470
C287        C  0.32266935  0.23352933  0.87151660    -0.12190
C288        C  0.31933478  0.26760089  0.87375689     0.01740
H289        H  0.32324440  0.28937823  0.76120359     0.14720
H290        H  0.32256508  0.21775833  0.90222860     0.14720
C291        C  0.31686966  0.28141273  0.91753263     0.36370
C292        C  0.32831125  0.22561489  0.74628526     0.36280
N293        N  0.31486826  0.29246096  0.95262498    -0.43970
N294        N  0.33062854  0.21476237  0.71122769    -0.43970
C295        C  0.07150164  0.06649608  0.50011257    -0.00380
C296        C  0.09032883  0.08660446  0.54118898    -0.12260
C297        C  0.12608454  0.12281185  0.54199403     0.01860
C298        C  0.14339239  0.13918617  0.50105384    -0.00470
C299        C  0.12408962  0.11943442  0.45989890    -0.12190
C300        C  0.08833710  0.08321397  0.45914228     0.01740
H301        H  0.07687819  0.07399256  0.57259257     0.14720
H302        H  0.13711014  0.13223680  0.42833776     0.14720
C303        C  0.06884945  0.06447751  0.41597972     0.36370
C304        C  0.14330220  0.14355172  0.58485280     0.36280
N305        N  0.05319039  0.04988238  0.38121044    -0.43970
N306        N  0.15694629  0.16034236  0.61912641    -0.43970
C307        C  0.42244326  0.41838347  0.50352301    -0.00380
C308        C  0.39516850  0.40914415  0.46583366    -0.12260
C309        C  0.35858515  0.37377003  0.46343300     0.01860
C310        C  0.34882385  0.34665298  0.49952777    -0.00470
C311        C  0.37622224  0.35628654  0.53743701    -0.12190
C312        C  0.41261138  0.39183452  0.53985290     0.01740
H313        H  0.40278460  0.42961826  0.43787907     0.14720
H314        H  0.36907372  0.33620130  0.56573607     0.14720
C315        C  0.43869759  0.40059453  0.58047051     0.36370
C316        C  0.33248527  0.36606982  0.42298984     0.36280
N317        N  0.45920169  0.40718548  0.61332901    -0.43970
N318        N  0.31173195  0.36017198  0.39049003    -0.43970
C319        C  0.42400150  0.49338008  0.50977744    -0.00380
C320        C  0.40882413  0.00258690  0.46989381    -0.12260
C321        C  0.37249646  0.00168758  0.46797689     0.01860
C322        C  0.35073669  0.49191579  0.50680945    -0.00470
C323        C  0.36625379  0.48348830  0.54707328    -0.12190
C324        C  0.40234078  0.48361666  0.54871030     0.01740
H325        H  0.42526399  0.00993178  0.43985275     0.14720
H326        H  0.34978148  0.47611378  0.57708318     0.14720
C327        C  0.41628125  0.47374555  0.59073258     0.36370
C328        C  0.35886523  0.01179118  0.42585863     0.36280
N329        N  0.42676712  0.46581546  0.62494821    -0.43970
N330        N  0.34852287  0.01979741  0.39161536    -0.43970
C331        C  0.14637304  0.49709152  0.49687501    -0.00380
C332        C  0.12044198  0.48482308  0.45742432    -0.12260
C333        C  0.08346386  0.48277886  0.45622129     0.01860
C334        C  0.07126331  0.49223593  0.49542364    -0.00470
C335        C  0.09673336  0.00378677  0.53502778    -0.12190
C336        C  0.13404943  0.00680632  0.53607297     0.01740
H337        H  0.12934213  0.47740939  0.42703119     0.14720
H338        H  0.08741047  0.01082051  0.56535415     0.14720
C339        C  0.15839320  0.01926213  0.57831412     0.36370
C340        C  0.05959585  0.47227150  0.41380070     0.36280
N341        N  0.17779152  0.02945099  0.61222482    -0.43970
N342        N  0.04149935  0.46414771  0.37903997    -0.43970
C343        C  0.50346560  0.14246737  0.50649633    -0.00380
C344        C  0.00045124  0.12245985  0.54745601    -0.12260
C345        C  0.99885528  0.08559700  0.54847131     0.01860
C346        C  0.49923962  0.06770103  0.50785054    -0.00470
C347        C  0.50191042  0.08738505  0.46698005    -0.12190
C348        C  0.50427459  0.12446941  0.46588655     0.01740
H349        H  0.99991544  0.13591438  0.57884100     0.14720
H350        H  0.50196172  0.07351068  0.43568944     0.14720
C351        C  0.50585412  0.14236393  0.42224666     0.36370
C352        C  0.99817423  0.06741682  0.59163827     0.36280
N353        N  0.50713926  0.15655916  0.38718198    -0.43970
N354        N  0.99807460  0.05332722  0.62650035    -0.43970
C355        C  0.49188663  0.34296142  0.49503930    -0.00380
C356        C  0.47875902  0.35536294  0.45599574    -0.12260
C357        C  0.47924026  0.39167313  0.45587706     0.01860
C358        C  0.49555189  0.41720647  0.49437447    -0.00470
C359        C  0.50989064  0.40524256  0.53267144    -0.12190
C360        C  0.50659711  0.36782672  0.53402384     0.01740
H361        H  0.46708498  0.33616041  0.42610310     0.14720
H362        H  0.52217907  0.42465179  0.56237698     0.14720
C363        C  0.01754385  0.35542690  0.57631697     0.36370
C364        C  0.46265750  0.40182200  0.41610925     0.36280
N365        N  0.02538240  0.34560200  0.61085768    -0.43970
N366        N  0.44913631  0.40962575  0.38412251    -0.43970
C367        C  0.17688204  0.19894737  0.16444318    -0.00380
C368        C  0.16946943  0.21172565  0.20465744    -0.12260
C369        C  0.16704193  0.24627890  0.20605721     0.01860
C370        C  0.17071722  0.26804306  0.16633705    -0.00470
C371        C  0.17813190  0.25550456  0.12609392    -0.12190
C372        C  0.18181175  0.22157180  0.12491745     0.01740
H373        H  0.16646118  0.19514653  0.23549977     0.14720
H374        H  0.18135682  0.27255426  0.09562073     0.14720
C375        C  0.19003786  0.21054798  0.08263026     0.36370
C376        C  0.16258477  0.25972020  0.24902710     0.36280
N377        N  0.19692237  0.20196376  0.04875535    -0.43970
N378        N  0.15949433  0.27044735  0.28377103    -0.43970
C379        C  0.17901452  0.49325130  0.17188655    -0.00380
C380        C  0.16957796  0.47233354  0.13055771    -0.12260
C381        C  0.16467860  0.43412032  0.12890884     0.01860
C382        C  0.16986936  0.41654323  0.16902919    -0.00470
C383        C  0.17972680  0.43755833  0.21027464    -0.12190
C384        C  0.18397808  0.47548527  0.21208015     0.01740
H385        H  0.16542975  0.48565158  0.09956363     0.14720
H386        H  0.18449558  0.42436415  0.24103843     0.14720
C387        C  0.19507337  0.49621867  0.25522938     0.36370
C388        C  0.15540887  0.41392823  0.08561885     0.36280
N389        N  0.20409741  0.01288760  0.28979491    -0.43970
N390        N  0.14816294  0.39785036  0.05086735    -0.43970
C391        C  0.02929923  0.18821779  0.17000227    -0.00380
C392        C  0.04083926  0.21415393  0.20732768    -0.12260
C393        C  0.07363225  0.25271334  0.20640808     0.01860
C394        C  0.09548483  0.26560266  0.16760269    -0.00470
C395        C  0.08402716  0.23924371  0.13052431    -0.12190
C396        C  0.05121548  0.20080667  0.13144016     0.01740
H397        H  0.02366418  0.20452214  0.23685643     0.14720
H398        H  0.10114890  0.24865630  0.10098372     0.14720
C399        C  0.04126519  0.17430832  0.09312205     0.36370
C400        C  0.08468194  0.27799450  0.24604858     0.36280
N401        N  0.03336895  0.15288852  0.06263109    -0.43970
N402        N  0.09334605  0.29801435  0.27803393    -0.43970
C403        C  0.24361702  0.41621996  0.17217051    -0.00380
C404        C  0.25546298  0.43835420  0.13279662    -0.12260
C405        C  0.29217003  0.47339260  0.13247761     0.01860
C406        C  0.31820342  0.48671497  0.17238132    -0.00470
C407        C  0.30604281  0.46446271  0.21199289    -0.12190
C408        C  0.26883746  0.42968355  0.21227848     0.01740
H409        H  0.23608777  0.42781384  0.10193472     0.14720
H410        H  0.32532883  0.47456412  0.24295742     0.14720
C411        C  0.25682773  0.40860262  0.25413368     0.36370
C412        C  0.30248990  0.99408134  0.09012935     0.36280
N413        N  0.24712992  0.39168919  0.28766932    -0.43970
N414        N  0.31048270  0.01058015  0.05613498    -0.43970
C415        C  0.02211656  0.34319377  0.16297446    -0.00380
C416        C  0.03051336  0.32739903  0.12586767    -0.12260
C417        C  0.06607578  0.32660656  0.12585740     0.01860
C418        C  0.09389225  0.34107382  0.16389712    -0.00470
C419        C  0.08562559  0.35673903  0.20088992    -0.12190
C420        C  0.05054909  0.35820391  0.20082250     0.01740
H421        H  0.50952938  0.31614765  0.09632773     0.14720
H422        H  0.10680930  0.36782143  0.23027145     0.14720
C423        C  0.04486178  0.37494930  0.24061685     0.36370
C424        C  0.07386709  0.31209626  0.08576029     0.36280
N425        N  0.04062475  0.38856134  0.27256288    -0.43970
N426        N  0.07996452  0.30053009  0.05344175    -0.43970
C427        C  0.24341291  0.34231434  0.16549752    -0.00380
C428        C  0.26036963  0.33474715  0.20506581    -0.12260
C429        C  0.29573103  0.33400481  0.20464930     0.01860
C430        C  0.31408287  0.33990674  0.16371131    -0.00470
C431        C  0.29654915  0.34644025  0.12382029    -0.12190
C432        C  0.26160840  0.34810071  0.12452956     0.01740
H433        H  0.24584963  0.32936785  0.23632224     0.14720
H434        H  0.31062402  0.35107522  0.09232216     0.14720
C435        C  0.24462338  0.35524245  0.08286965     0.36370
C436        C  0.31197358  0.32614063  0.24643789     0.36280
N437        N  0.23096350  0.36099793  0.04952528    -0.43970
N438        N  0.32482666  0.31993464  0.28011329    -0.43970
O439        O  0.40217937  0.63673143  0.30387118    -0.81120
O440        O  0.30903127  0.68817827  0.41830371    -0.65810
O441        O  0.33467146  0.63530297  0.33166001    -1.12410
C442        C  0.37040785  0.75233781  0.24753169     1.05770
O443        O  0.27631674  0.70365755  0.36537453    -0.79010
O444        O  0.27310508  0.68360890  0.27981206    -0.66600
Ni445      Ni  0.36546541  0.61110912  0.34970870     1.34870
C446        C  0.27557432  0.65850353  0.25589308     0.84510
O447        O  0.30001908  0.61542039  0.41535305    -0.79550
O448        O  0.32991873  0.58200159  0.39559063    -0.89830
C449        C  0.28610729  0.70153096  0.40666053     0.84080
O450        O  0.40302503  0.65154809  0.39174301    -0.68030
O451        O  0.34444851  0.75436647  0.26909790    -0.87320
C452        C  0.40194679  0.67812888  0.41457627     0.84910
C453        C  0.30560707  0.58582621  0.41836222     1.06480
H454        H  0.36859698  0.72619752  0.35027745     0.38280
O455        O  0.34396419  0.70484185  0.33635476    -1.09980
O456        O  0.30678689  0.65611625  0.25573110    -0.66630
Ni457      Ni  0.35693116  0.67938472  0.29144775     1.26350
O458        O  0.37250770  0.68371866  0.41199169    -0.66860
O459        O  0.37899247  0.72482974  0.25273071    -0.79150
C460        C  0.39191078  0.63728212  0.26230590     0.84290
O461        O  0.37024232  0.65192977  0.24991511    -0.66330
Ni462      Ni  0.31139516  0.72708483  0.31766529     1.27450
Ni463      Ni  0.32214978  0.66083719  0.37665135     1.26060
H464        H  0.30982125  0.61442551  0.31772631     0.38840
C465        C  0.20536136  0.84205015  0.16733705     0.02060
C466        C  0.20523675  0.87803110  0.16980822     0.02060
C467        C  0.16887955  0.87779752  0.16823480     0.02060
C468        C  0.13231606  0.84112854  0.16581697     0.02060
C469        C  0.13281716  0.80483011  0.16658013     0.02060
C470        C  0.16942814  0.80557988  0.16663168     0.02060
O471        O  0.20634242  0.61429436  0.23964433    -0.74650
O472        O  0.11513562  0.56200479  0.15413458    -0.74680
O473        O  0.16298439  0.53951125  0.20114851    -0.74740
O474        O  0.15806973  0.63502675  0.19344269    -0.74790
O475        O  0.20010375  0.65664569  0.13886928    -0.74720
O476        O  0.20070246  0.55819090  0.14245183    -0.74700
O477        O  0.15580903  0.58478449  0.09809826    -0.74670
O478        O  0.24633759  0.63145045  0.18316324    -0.74740
Ni479      Ni  0.15924563  0.58679396  0.19921363     1.25410
Ni480      Ni  0.20223902  0.60837175  0.13870411     1.25360
C481        C  0.24118128  0.63274093  0.22503446     0.87530
C482        C  0.12077001  0.56608691  0.11180363     0.87460
C483        C  0.18146284  0.53244686  0.17217328     0.87490
C484        C  0.17846658  0.66174360  0.16531546     0.87660
O485        O  0.44886285  0.90739702  0.14910254    -0.74650
O486        O  0.41029944  0.82034624  0.23121331    -0.74680
O487        O  0.47921438  0.86428471  0.19042052    -0.74740
O488        O  0.38096510  0.86320360  0.19055429    -0.74790
O489        O  0.35566842  0.81927844  0.13295740    -0.74720
O490        O  0.45561451  0.82238012  0.13135484    -0.74700
O491        O  0.38718923  0.77694917  0.17320044    -0.74670
O492        O  0.42243358  0.86430510  0.09078354    -0.74740
Ni493      Ni  0.43093900  0.86534088  0.19229686     1.25410
Ni494      Ni  0.40459202  0.81919004  0.12988902     1.25360
C495        C  0.44007187  0.90005550  0.10656620     0.87530
C496        C  0.39122282  0.78449930  0.21575521     0.87460
C497        C  0.48381673  0.84335735  0.16141665     0.87490
C498        C  0.35205614  0.84074870  0.16227432     0.87660
O499        O  0.39860498  0.62378969  0.18641244    -0.74650
O500        O  0.42690079  0.57090884  0.10154374    -0.74680
O501        O  0.36232583  0.55125834  0.14592116    -0.74740
O502        O  0.46363313  0.64446467  0.14102286    -0.74790
O503        O  0.48774768  0.62396529  0.19978415    -0.74720
O504        O  0.38630121  0.52763827  0.20121869    -0.74700
O505        O  0.45357616  0.55110610  0.15834040    -0.74670
O506        O  0.42148638  0.60013707  0.24305508    -0.74740
Ni507      Ni  0.41215324  0.59848634  0.14169846     1.25410
Ni508      Ni  0.43820306  0.57490142  0.20265535     1.25360
C509        C  0.40499077  0.62006056  0.22884604     0.87530
C510        C  0.44438658  0.55192923  0.11611151     0.87460
C511        C  0.35755563  0.52365112  0.17339779     0.87490
C512        C  0.49194174  0.65008924  0.17013055     0.87660
O513        O  0.02445186  0.76257831  0.57075331    -0.74650
O514        O  0.43211033  0.70404330  0.48815249    -0.74680
O515        O  0.48367021  0.68650937  0.53474387    -0.74740
O516        O  0.47308520  0.77915535  0.52466230    -0.74790
O517        O  0.01089785  0.79898935  0.46595004    -0.74720
O518        O  0.02240493  0.70691179  0.47703229    -0.74700
O519        O  0.47088573  0.72320745  0.43035990    -0.74670
O520        O  0.06295716  0.78240631  0.51270175    -0.74740
Ni521      Ni  0.47694411  0.73224544  0.53164972     1.25410
Ni522      Ni  0.01816717  0.75364573  0.46946980     1.25360
C523        C  0.05867143  0.78317147  0.55504018     0.87530
C524        C  0.43653088  0.70332346  0.44581456     0.87460
C525        C  0.50359021  0.68070649  0.50644232     0.87490
C526        C  0.49133134  0.80485570  0.49463215     0.87660
O527        O  0.23451085  0.97090328  0.56995319    -0.74650
O528        O  0.28563463  0.56000285  0.49147558    -0.74680
O529        O  0.21328393  0.51911684  0.52628821    -0.74740
O530        O  0.30771811  0.51161709  0.53578090    -0.74790
O531        O  0.28503408  0.97108796  0.47514864    -0.74720
O532        O  0.18922042  0.97658638  0.46768997    -0.74700
O533        O  0.26176510  0.51800586  0.43208712    -0.74670
O534        O  0.21268248  0.92896192  0.51062778    -0.74740
Ni535      Ni  0.26120123  0.51688496  0.53300612     1.25410
Ni536      Ni  0.23630955  0.97219055  0.46924964     1.25360
C537        C  0.21427577  0.93553456  0.55306480     0.87530
C538        C  0.28267013  0.55332210  0.44882704     0.87460
C539        C  0.18496258  0.99791502  0.49670702     0.87490
C540        C  0.31249261  0.99123592  0.50611024     0.87660
C541        C  0.03286786  0.99197387  0.49640292     0.02060
C542        C  0.49633192  0.95576154  0.49702324     0.02060
C543        C  0.46099352  0.95624146  0.50375560     0.02060
C544        C  0.46184560  0.99280248  0.50845380     0.02060
C545        C  0.49819419  0.52890555  0.50678227     0.02060
C546        C  0.03346428  0.52837153  0.50092671     0.02060
O547        O  0.25080798  0.73230528  0.42806290    -0.74650
O548        O  0.21433084  0.77397852  0.51631820    -0.74680
O549        O  0.28121669  0.80274377  0.47218485    -0.74740
O550        O  0.18394705  0.70345362  0.47199918    -0.74790
O551        O  0.21049750  0.68257142  0.52780826    -0.74720
O552        O  0.30820438  0.78115713  0.52637898    -0.74700
O553        O  0.24202705  0.75334634  0.57108266    -0.74670
O554        O  0.27725968  0.71048161  0.48291997    -0.74740
Ni555      Ni  0.23160278  0.75386455  0.47013694     1.25410
Ni556      Ni  0.26041844  0.73107825  0.52899927     1.25360
C557        C  0.27029803  0.71494868  0.44094265     0.87530
C558        C  0.22233133  0.77048471  0.55829175     0.87460
C559        C  0.31087389  0.80832830  0.49913638     0.87490
C560        C  0.18113779  0.67693227  0.50028887     0.87660
O561        O  0.39996697  0.92877896  0.96345370    -0.81120
O562        O  0.05193334  0.52670154  0.08803737    -0.65810
O563        O  0.46698159  0.99813358  0.99670809    -1.12410
C564        C  0.04222039  0.95843010  0.91557140     1.05770
O565        O  0.09437980  0.55830528  0.03646520    -0.79010
O566        O  0.07548884  0.55625503  0.94797408    -0.66600
Ni567      Ni  0.41306048  0.96707537  0.01079714     1.34870
C568        C  0.04622549  0.55442003  0.92404993     0.84510
O569        O  0.48686518  0.53434347  0.08309343    -0.79550
O570        O  0.42203058  0.50424079  0.05816128    -0.89830
C571        C  0.08724790  0.54921157  0.07741703     0.84080
O572        O  0.41862394  0.93126638  0.05209963    -0.68030
O573        O  0.07200293  0.98326143  0.94114537    -0.87320
C574        C  0.44791762  0.93302696  0.07588407     0.84910
C575        C  0.45180689  0.52892283  0.08387310     1.06480
H576        H  0.02417032  0.96464753  0.01537955     0.38280
O577        O  0.02724632  0.98919816  0.00301585    -1.09980
O578        O  0.01116103  0.52490903  0.92396662    -0.66630
Ni579      Ni  0.48611640  0.97534854  0.95573056     1.26350
O580        O  0.48303857  0.96238435  0.07569409    -0.66860
O581        O  0.00713520  0.95283158  0.91658049    -0.79150
C582        C  0.40707948  0.93767666  0.92245717     0.84290
O583        O  0.44229038  0.96054575  0.91180730    -0.66330
Ni584      Ni  0.08112433  0.52023282  0.98882433     1.27450
Ni585      Ni  0.00808119  0.51196054  0.04401089     1.26060
H586        H  0.47007594  0.52268621  0.98434118     0.38840
O587        O  0.21770569  0.78279493  0.63397082    -0.81120
O588        O  0.12530441  0.83592351  0.75035734    -0.65810
O589        O  0.15078221  0.78259515  0.66340340    -1.12410
C590        C  0.19053187  0.90264473  0.58281878     1.05770
O591        O  0.09307105  0.85065664  0.69633831    -0.79010
O592        O  0.09231973  0.83568627  0.60859240    -0.66600
Ni593      Ni  0.18259000  0.75940595  0.68157220     1.34870
C594        C  0.09339158  0.80907185  0.58584428     0.84510
O595        O  0.11603957  0.76271089  0.74729735    -0.79550
O596        O  0.14942342  0.73214692  0.73000596    -0.89830
C597        C  0.10356739  0.85051350  0.73791543     0.84080
O598        O  0.22121843  0.80234548  0.71975135    -0.68030
O599        O  0.16564591  0.90614489  0.60495901    -0.87320
C600        C  0.21925806  0.82777247  0.74364839     0.84910
C601        C  0.12405900  0.73477904  0.75209918     1.06480
H602        H  0.18547764  0.87322301  0.68265049     0.38280
O603        O  0.16065876  0.85237308  0.66861227    -1.09980
O604        O  0.12313602  0.80411326  0.58794744    -0.66630
Ni605      Ni  0.17318035  0.82693805  0.62354233     1.26350
O606        O  0.18845471  0.83088246  0.74387382    -0.66860
O607        O  0.19583492  0.87283297  0.58552804    -0.79090
C608        C  0.20774892  0.78499664  0.59278747     0.84290
O609        O  0.18589482  0.79960322  0.58145155    -0.66330
Ni610      Ni  0.12978752  0.87648812  0.65053451     1.27450
Ni611      Ni  0.13821046  0.80818509  0.70860283     1.26060
H612        H  0.12600941  0.76154137  0.64938055     0.38840
O613        O  0.24843644  0.85333852  0.81657243    -0.74650
O614        O  0.33864985  0.90120065  0.90163415    -0.74680
O615        O  0.29264168  0.92645657  0.85711447    -0.74740
O616        O  0.29579034  0.82933872  0.86060103    -0.74790
O617        O  0.33724814  0.85168433  0.80536112    -0.74720
O618        O  0.33140071  0.94646712  0.79957805    -0.74700
O619        O  0.37946569  0.92423820  0.84573774    -0.74670
O620        O  0.28846604  0.87213859  0.75995989    -0.74740
Ni621      Ni  0.29238402  0.87692054  0.86093094     1.25410
Ni622      Ni  0.33551217  0.89954545  0.80054010     1.25360
C623        C  0.25365570  0.85300864  0.77460047     0.87530
C624        C  0.37369599  0.92023520  0.88802880     0.87460
C625        C  0.31236056  0.95299565  0.82831304     0.87490
C626        C  0.31744153  0.82483850  0.83359183     0.87660
C627        C  0.28929690  0.64507370  0.82623483     0.02060
C628        C  0.32568332  0.68118288  0.82846186     0.02060
C629        C  0.36193302  0.68131412  0.82945482     0.02060
C630        C  0.36201571  0.64495949  0.82923316     0.02060
C631        C  0.32522576  0.60845636  0.82608318     0.02060
C632        C  0.28894774  0.60874087  0.82415750     0.02060
O633        O  0.04429523  0.58015412  0.85109754    -0.74650
O634        O  0.08421197  0.66692765  0.76871870    -0.74680
O635        O  0.11242672  0.62296308  0.80945138    -0.74740
O636        O  0.01530018  0.62472778  0.80964821    -0.74790
O637        O  0.03955047  0.66551106  0.87005599    -0.74720
O638        O  0.13899977  0.66794164  0.86585090    -0.74700
O639        O  0.10730641  0.71047777  0.82658694    -0.74670
O640        O  0.07282469  0.62329486  0.90921781    -0.74740
Ni641      Ni  0.06290214  0.62212142  0.80775633     1.25410
Ni642      Ni  0.09034782  0.66835534  0.87010032     1.25360
C643        C  0.05409538  0.58749271  0.89350977     0.87530
C644        C  0.10326627  0.70279665  0.78404575     0.87460
C645        C  0.14189645  0.64550996  0.83718153     0.87490
C646        C  0.01145217  0.64553900  0.83956572     0.87660
O647        O  0.07250962  0.88640657  0.75684752    -0.74650
O648        O  0.04016891  0.93567180  0.84117137    -0.74680
O649        O  0.10665954  0.95957374  0.79644591    -0.74740
O650        O  0.00697776  0.86213789  0.80150293    -0.74790
O651        O  0.03295229  0.84280252  0.85944092    -0.74720
O652        O  0.13241046  0.93888131  0.85331247    -0.74700
O653        O  0.06765619  0.91689431  0.89814360    -0.74670
O654        O  0.09822916  0.86570857  0.81370610    -0.74740
Ni655      Ni  0.05557347  0.91168253  0.79699985     1.25410
Ni656      Ni  0.08360327  0.89027257  0.85821431     1.25360
C657        C  0.09050607  0.86794041  0.77124664     0.87530
C658        C  0.04969173  0.93536174  0.88342087     0.87460
C659        C  0.13585697  0.96513970  0.82437440     0.87490
C660        C  0.00406311  0.83599401  0.83054088     0.87660
C661        C  0.40070188  0.64546865  0.83308074    -0.00380
C662        C  0.42387661  0.65710015  0.79571110    -0.12260
C663        C  0.46016932  0.65780369  0.79759792     0.01860
C664        C  0.47421687  0.64707319  0.83768965    -0.00470
C665        C  0.45184559  0.63683118  0.87572982    -0.12190
C666        C  0.41522964  0.63579534  0.87363943     0.01740
H667        H  0.41340902  0.66542836  0.76476881     0.14720
H668        H  0.46261429  0.62890708  0.90679256     0.14720
C669        C  0.39327541  0.62515610  0.91357774     0.36370
C670        C  0.98318272  0.67098484  0.75841061     0.36280
N671        N  0.37564619  0.61660600  0.94559254    -0.43970
N672        N  0.00177510  0.68175658  0.72714609    -0.43970
C673        C  0.17983489  0.64579427  0.83527360    -0.00380
C674        C  0.19139640  0.64176813  0.79287469    -0.12260
C675        C  0.22698695  0.64191541  0.78907938     0.01860
C676        C  0.25138505  0.64536552  0.82829826    -0.00470
C677        C  0.23977037  0.64904209  0.87072578    -0.12190
C678        C  0.20451326  0.64957545  0.87453539     0.01740
H679        H  0.17284153  0.63913364  0.76245444     0.14720
H680        H  0.25829936  0.65126826  0.90100121     0.14720
C681        C  0.19366304  0.65238992  0.91920800     0.36370
C682        C  0.23797066  0.63909322  0.74454229     0.36280
N683        N  0.18493661  0.65456724  0.95503098    -0.43970
N684        N  0.24633326  0.63699296  0.70849730    -0.43970
C685        C  0.17430735  0.50239928  0.82395624    -0.00380
C686        C  0.19357731  0.51438941  0.78368027    -0.12260
C687        C  0.23148282  0.54824283  0.78312058     0.01860
C688        C  0.25010448  0.57095257  0.82322352    -0.00470
C689        C  0.23065317  0.55900040  0.86332975    -0.12190
C690        C  0.19312668  0.52502825  0.86405400     0.01740
H691        H  0.17936010  0.99680614  0.75290639     0.14720
H692        H  0.24486065  0.57653465  0.89413817     0.14720
C693        C  0.17407571  0.51476345  0.90609903     0.36370
C694        C  0.25041375  0.55905080  0.74106928     0.36280
N695        N  0.15901467  0.50678408  0.93992322    -0.43970
N696        N  0.26514161  0.56732640  0.70703056    -0.43970
C697        C  0.39971044  0.72008383  0.83069623    -0.00380
C698        C  0.41476740  0.73774728  0.78963705    -0.12260
C699        C  0.44826897  0.77575797  0.78881473     0.01860
C700        C  0.46745143  0.79667679  0.82986472    -0.00470
C701        C  0.45280767  0.77858265  0.87105903    -0.12190
C702        C  0.41893480  0.74068486  0.87172022     0.01740
H703        H  0.40013555  0.72176609  0.75808467     0.14720
H704        H  0.46757994  0.79429761  0.90274198     0.14720
C705        C  0.40404575  0.72374647  0.91469790     0.36370
C706        C  0.46327449  0.79178543  0.74552253     0.36280
N707        N  0.39202285  0.71028272  0.94917456    -0.43970
N708        N  0.47534724  0.80454433  0.71083514    -0.43970
C709        C  0.31456873  0.99237923  0.82841878    -0.00380
C710        C  0.32967710  0.51729226  0.79106525    -0.12260
C711        C  0.33414400  0.55532264  0.78987965     0.01860
C712        C  0.32401125  0.56955630  0.82690891    -0.00470
C713        C  0.30943832  0.54514508  0.86446288    -0.12190
C714        C  0.30414758  0.00678060  0.86542194     0.01740
H715        H  0.33770356  0.50693380  0.76221806     0.14720
H716        H  0.30158561  0.55602821  0.89301312     0.14720
C717        C  0.28823909  0.98342194  0.90507551     0.36370
C718        C  0.34789333  0.57844607  0.74959558     0.36280
N719        N  0.27528007  0.96487132  0.93691020    -0.43970
N720        N  0.35880917  0.59661999  0.71703394    -0.43970
C721        C  0.31955305  0.78807907  0.83370256    -0.00380
C722        C  0.32310604  0.77387846  0.79218569    -0.12260
C723        C  0.32570279  0.73950218  0.78992998     0.01860
C724        C  0.32545600  0.71911103  0.82984663    -0.00470
C725        C  0.32266935  0.73352933  0.87151660    -0.12190
C726        C  0.31933478  0.76760089  0.87375689     0.01740
H727        H  0.32324439  0.78937823  0.76120359     0.14720
H728        H  0.32256508  0.71775833  0.90222859     0.14720
C729        C  0.31686966  0.78141272  0.91753263     0.36370
C730        C  0.32831125  0.72561489  0.74628526     0.36280
N731        N  0.31486826  0.79246096  0.95262498    -0.43970
N732        N  0.33062854  0.71476237  0.71122769    -0.43970
C733        C  0.07150164  0.56649608  0.50011260    -0.00380
C734        C  0.09032884  0.58660445  0.54118901    -0.12260
C735        C  0.12608455  0.62281185  0.54199405     0.01860
C736        C  0.14339239  0.63918617  0.50105386    -0.00470
C737        C  0.12408961  0.61943442  0.45989892    -0.12190
C738        C  0.08833709  0.58321397  0.45914231     0.01740
H739        H  0.07687820  0.57399256  0.57259260     0.14720
H740        H  0.13711013  0.63223681  0.42833778     0.14720
C741        C  0.06884943  0.56447751  0.41597975     0.36370
C742        C  0.14330221  0.64355171  0.58485282     0.36280
N743        N  0.05319037  0.54988239  0.38121046    -0.43970
N744        N  0.15694630  0.66034236  0.61912643    -0.43970
C745        C  0.42244326  0.91838347  0.50352300    -0.00380
C746        C  0.39516849  0.90914415  0.46583365    -0.12260
C747        C  0.35858515  0.87377003  0.46343299     0.01860
C748        C  0.34882386  0.84665298  0.49952776    -0.00470
C749        C  0.37622224  0.85628654  0.53743699    -0.12190
C750        C  0.41261138  0.89183451  0.53985289     0.01740
H751        H  0.40278460  0.92961827  0.43787906     0.14720
H752        H  0.36907373  0.83620129  0.56573605     0.14720
C753        C  0.43869760  0.90059452  0.58047048     0.36370
C754        C  0.33248526  0.86606982  0.42298984     0.36280
N755        N  0.45920170  0.90718547  0.61332898    -0.43970
N756        N  0.31173194  0.86017199  0.39049003    -0.43970
C757        C  0.42400150  0.99338008  0.50977743    -0.00380
C758        C  0.40882412  0.50258688  0.46989381    -0.12260
C759        C  0.37249644  0.50168754  0.46797689     0.01860
C760        C  0.35073670  0.99191581  0.50680945    -0.00470
C761        C  0.36625379  0.98348829  0.54707327    -0.12190
C762        C  0.40234078  0.98361665  0.54871029     0.01740
H763        H  0.42526397  0.50993175  0.43985275     0.14720
H764        H  0.34978147  0.97611376  0.57708316     0.14720
C765        C  0.41628124  0.97374552  0.59073256     0.36370
C766        C  0.35886519  0.51179112  0.42585862     0.36280
N767        N  0.42676710  0.96581543  0.62494819    -0.43970
N768        N  0.34852281  0.51979733  0.39161534    -0.43970
C769        C  0.14637304  0.99709152  0.49687499    -0.00380
C770        C  0.12044198  0.98482307  0.45742430    -0.12260
C771        C  0.08346386  0.98277885  0.45622126     0.01860
C772        C  0.07126331  0.99223593  0.49542361    -0.00470
C773        C  0.09673336  0.50378677  0.53502781    -0.12190
C774        C  0.13404943  0.50680631  0.53607300     0.01740
H775        H  0.12934213  0.97740938  0.42703118     0.14720
H776        H  0.08741047  0.51082050  0.56535418     0.14720
C777        C  0.15839320  0.51926212  0.57831415     0.36370
C778        C  0.05959585  0.97227149  0.41380067     0.36280
N779        N  0.17779152  0.52945097  0.61222484    -0.43970
N780        N  0.04149935  0.96414769  0.37903995    -0.43970
C781        C  0.50346561  0.64246737  0.50649635    -0.00380
C782        C  0.00045125  0.62245986  0.54745602    -0.12260
C783        C  0.99885529  0.58559700  0.54847133     0.01860
C784        C  0.49923962  0.56770103  0.50785056    -0.00470
C785        C  0.50191041  0.58738505  0.46698007    -0.12190
C786        C  0.50427458  0.62446940  0.46588656     0.01740
H787        H  0.99991546  0.63591439  0.57884102     0.14720
H788        H  0.50196170  0.57351067  0.43568946     0.14720
C789        C  0.50585410  0.64236392  0.42224667     0.36370
C790        C  0.99817425  0.56741683  0.59163829     0.36280
N791        N  0.50713924  0.65655914  0.38718199    -0.43970
N792        N  0.99807463  0.55332724  0.62650037    -0.43970
C793        C  0.49188664  0.84296142  0.49503929    -0.00380
C794        C  0.47875902  0.85536293  0.45599573    -0.12260
C795        C  0.47924026  0.89167313  0.45587704     0.01860
C796        C  0.49555190  0.91720647  0.49437444    -0.00470
C797        C  0.50989065  0.90524256  0.53267142    -0.12190
C798        C  0.50659712  0.86782673  0.53402382     0.01740
H799        H  0.46708497  0.83616040  0.42610308     0.14720
H800        H  0.52217908  0.92465180  0.56237695     0.14720
C801        C  0.01754387  0.85542691  0.57631695     0.36370
C802        C  0.46265749  0.90182199  0.41610923     0.36280
N803        N  0.02538242  0.84560201  0.61085767    -0.43970
N804        N  0.44913630  0.90962574  0.38412250    -0.43970
C805        C  0.17688204  0.69894737  0.16444318    -0.00380
C806        C  0.16946943  0.71172565  0.20465745    -0.12260
C807        C  0.16704193  0.74627890  0.20605721     0.01860
C808        C  0.17071722  0.76804306  0.16633705    -0.00470
C809        C  0.17813190  0.75550456  0.12609392    -0.12190
C810        C  0.18181176  0.72157180  0.12491745     0.01740
H811        H  0.16646118  0.69514653  0.23549977     0.14720
H812        H  0.18135682  0.77255426  0.09562074     0.14720
C813        C  0.19003786  0.71054798  0.08263026     0.36370
C814        C  0.16258477  0.75972020  0.24902710     0.36280
N815        N  0.19692237  0.70196376  0.04875536    -0.43970
N816        N  0.15949432  0.77044735  0.28377104    -0.43970
C817        C  0.17901452  0.99325130  0.17188655    -0.00380
C818        C  0.16957795  0.97233353  0.13055771    -0.12260
C819        C  0.16467859  0.93412032  0.12890884     0.01860
C820        C  0.16986936  0.91654323  0.16902919    -0.00470
C821        C  0.17972680  0.93755833  0.21027465    -0.12190
C822        C  0.18397808  0.97548527  0.21208015     0.01740
H823        H  0.16542974  0.98565158  0.09956363     0.14720
H824        H  0.18449558  0.92436415  0.24103844     0.14720
C825        C  0.19507338  0.99621867  0.25522938     0.36370
C826        C  0.15540886  0.91392822  0.08561885     0.36280
N827        N  0.20409740  0.51288759  0.28979491    -0.43970
N828        N  0.14816293  0.89785035  0.05086735    -0.43970
C829        C  0.02929923  0.68821779  0.17000227    -0.00380
C830        C  0.04083926  0.71415393  0.20732769    -0.12260
C831        C  0.07363225  0.75271334  0.20640808     0.01860
C832        C  0.09548483  0.76560266  0.16760269    -0.00470
C833        C  0.08402716  0.73924371  0.13052431    -0.12190
C834        C  0.05121548  0.70080668  0.13144016     0.01740
H835        H  0.02366418  0.70452214  0.23685644     0.14720
H836        H  0.10114890  0.74865630  0.10098372     0.14720
C837        C  0.04126519  0.67430832  0.09312205     0.36370
C838        C  0.08468194  0.77799450  0.24604858     0.36280
N839        N  0.03336895  0.65288852  0.06263109    -0.43970
N840        N  0.09334605  0.79801434  0.27803393    -0.43970
C841        C  0.24361702  0.91621996  0.17217052    -0.00380
C842        C  0.25546298  0.93835420  0.13279663    -0.12260
C843        C  0.29217002  0.97339260  0.13247761     0.01860
C844        C  0.31820342  0.98671498  0.17238133    -0.00470
C845        C  0.30604281  0.96446271  0.21199289    -0.12190
C846        C  0.26883746  0.92968355  0.21227848     0.01740
H847        H  0.23608776  0.92781384  0.10193473     0.14720
H848        H  0.32532883  0.97456412  0.24295742     0.14720
C849        C  0.25682773  0.90860262  0.25413368     0.36370
C850        C  0.30248991  0.49408133  0.09012935     0.36280
N851        N  0.24712993  0.89168919  0.28766933    -0.43970
N852        N  0.31048271  0.51058014  0.05613497    -0.43970
C853        C  0.02211656  0.84319376  0.16297446    -0.00380
C854        C  0.03051336  0.82739903  0.12586767    -0.12260
C855        C  0.06607578  0.82660656  0.12585740     0.01860
C856        C  0.09389225  0.84107382  0.16389713    -0.00470
C857        C  0.08562559  0.85673903  0.20088993    -0.12190
C858        C  0.05054909  0.85820391  0.20082251     0.01740
H859        H  0.50952937  0.81614765  0.09632774     0.14720
H860        H  0.10680930  0.86782143  0.23027146     0.14720
C861        C  0.04486178  0.87494930  0.24061686     0.36370
C862        C  0.07386709  0.81209626  0.08576030     0.36280
N863        N  0.04062475  0.88856134  0.27256289    -0.43970
N864        N  0.07996451  0.80053009  0.05344176    -0.43970
C865        C  0.24341291  0.84231434  0.16549753    -0.00380
C866        C  0.26036963  0.83474714  0.20506582    -0.12260
C867        C  0.29573102  0.83400480  0.20464931     0.01860
C868        C  0.31408287  0.83990674  0.16371132    -0.00470
C869        C  0.29654915  0.84644025  0.12382029    -0.12190
C870        C  0.26160841  0.84810071  0.12452957     0.01740
H871        H  0.24584963  0.82936785  0.23632225     0.14720
H872        H  0.31062402  0.85107522  0.09232217     0.14720
C873        C  0.24462338  0.85524246  0.08286966     0.36370
C874        C  0.31197358  0.82614062  0.24643790     0.36280
N875        N  0.23096351  0.86099793  0.04952529    -0.43970
N876        N  0.32482665  0.81993463  0.28011330    -0.43970
O877        O  0.90217937  0.13673144  0.30387117    -0.81120
O878        O  0.80903127  0.18817828  0.41830370    -0.65810
O879        O  0.83467146  0.13530298  0.33166000    -1.12410
C880        C  0.87040785  0.25233782  0.24753167     1.05770
O881        O  0.77631675  0.20365757  0.36537452    -0.79010
O882        O  0.77310508  0.18360890  0.27981206    -0.66600
Ni883      Ni  0.86546540  0.11110913  0.34970869     1.34870
C884        C  0.77557432  0.15850354  0.25589307     0.84510
O885        O  0.80001908  0.11542040  0.41535304    -0.79550
O886        O  0.82991872  0.08200160  0.39559061    -0.89830
C887        C  0.78610729  0.20153098  0.40666052     0.84080
O888        O  0.90302502  0.15154809  0.39174300    -0.68030
O889        O  0.84444851  0.25436647  0.26909788    -0.87320
C890        C  0.90194679  0.17812889  0.41457626     0.84910
C891        C  0.80560706  0.08582622  0.41836221     1.06480
H892        H  0.86859699  0.22619753  0.35027744     0.38280
O893        O  0.84396419  0.20484186  0.33635475    -1.09980
O894        O  0.80678690  0.15611627  0.25573109    -0.66630
Ni895      Ni  0.85693116  0.17938473  0.29144774     1.26350
O896        O  0.87250770  0.18371867  0.41199168    -0.66860
O897        O  0.87899248  0.22482975  0.25273071    -0.79150
C898        C  0.89191078  0.13728213  0.26230590     0.84290
O899        O  0.87024232  0.15192978  0.24991510    -0.66330
Ni900      Ni  0.81139516  0.22708484  0.31766527     1.27450
Ni901      Ni  0.82214979  0.16083720  0.37665134     1.26060
H902        H  0.80982125  0.11442552  0.31772630     0.38840
C903        C  0.70536136  0.34205015  0.16733704     0.02060
C904        C  0.70523675  0.37803110  0.16980822     0.02060
C905        C  0.66887955  0.37779752  0.16823479     0.02060
C906        C  0.63231606  0.34112854  0.16581696     0.02060
C907        C  0.63281716  0.30483011  0.16658012     0.02060
C908        C  0.66942814  0.30557988  0.16663167     0.02060
O909        O  0.70634243  0.11429437  0.23964433    -0.74650
O910        O  0.61513562  0.06200479  0.15413459    -0.74680
O911        O  0.66298439  0.03951125  0.20114851    -0.74740
O912        O  0.65806973  0.13502675  0.19344269    -0.74790
O913        O  0.70010375  0.15664569  0.13886928    -0.74720
O914        O  0.70070246  0.05819090  0.14245183    -0.74700
O915        O  0.65580903  0.08478448  0.09809826    -0.74670
O916        O  0.74633759  0.13145045  0.18316324    -0.74740
Ni917      Ni  0.65924564  0.08679396  0.19921363     1.25410
Ni918      Ni  0.70223902  0.10837174  0.13870411     1.25360
C919        C  0.74118128  0.13274093  0.22503445     0.87530
C920        C  0.62077000  0.06608690  0.11180364     0.87460
C921        C  0.68146284  0.03244686  0.17217328     0.87490
C922        C  0.67846658  0.16174360  0.16531546     0.87660
O923        O  0.94886286  0.40739702  0.14910253    -0.74650
O924        O  0.91029944  0.32034624  0.23121329    -0.74680
O925        O  0.97921438  0.36428472  0.19042051    -0.74740
O926        O  0.88096510  0.36320360  0.19055428    -0.74790
O927        O  0.85566842  0.31927844  0.13295739    -0.74720
O928        O  0.95561451  0.32238013  0.13135483    -0.74700
O929        O  0.88718923  0.27694918  0.17320042    -0.74670
O930        O  0.92243359  0.36430511  0.09078353    -0.74740
Ni931      Ni  0.93093900  0.36534089  0.19229685     1.25410
Ni932      Ni  0.90459203  0.31919005  0.12988901     1.25360
C933        C  0.94007188  0.40005551  0.10656619     0.87530
C934        C  0.89122282  0.28449930  0.21575520     0.87460
C935        C  0.98381673  0.34335736  0.16141664     0.87490
C936        C  0.85205614  0.34074870  0.16227431     0.87660
O937        O  0.89860498  0.12378970  0.18641244    -0.74650
O938        O  0.92690079  0.07090883  0.10154374    -0.74680
O939        O  0.86232583  0.05125834  0.14592117    -0.74740
O940        O  0.96363313  0.14446466  0.14102285    -0.74790
O941        O  0.98774768  0.12396529  0.19978416    -0.74720
O942        O  0.88630121  0.02763828  0.20121870    -0.74700
O943        O  0.95357616  0.05110610  0.15834040    -0.74670
O944        O  0.92148638  0.10013708  0.24305508    -0.74740
Ni945      Ni  0.91215324  0.09848634  0.14169846     1.25410
Ni946      Ni  0.93820306  0.07490142  0.20265535     1.25360
C947        C  0.90499077  0.12006057  0.22884604     0.87530
C948        C  0.94438658  0.05192922  0.11611151     0.87460
C949        C  0.85755563  0.02365112  0.17339780     0.87490
C950        C  0.99194174  0.15008924  0.17013055     0.87660
O951        O  0.52445185  0.26257830  0.57075331    -0.74650
O952        O  0.93211032  0.20404329  0.48815249    -0.74680
O953        O  0.98367021  0.18650937  0.53474386    -0.74740
O954        O  0.97308520  0.27915535  0.52466230    -0.74790
O955        O  0.51089784  0.29898935  0.46595004    -0.74720
O956        O  0.52240493  0.20691179  0.47703229    -0.74700
O957        O  0.97088573  0.22320745  0.43035990    -0.74670
O958        O  0.56295715  0.28240630  0.51270175    -0.74740
Ni959      Ni  0.97694411  0.23224543  0.53164972     1.25410
Ni960      Ni  0.51816716  0.25364573  0.46946980     1.25360
C961        C  0.55867142  0.28317147  0.55504018     0.87530
C962        C  0.93653088  0.20332346  0.44581455     0.87460
C963        C  0.00359021  0.18070649  0.50644231     0.87490
C964        C  0.99133133  0.30485570  0.49463216     0.87660
O965        O  0.73451084  0.47090327  0.56995320    -0.74650
O966        O  0.78563463  0.06000286  0.49147556    -0.74680
O967        O  0.71328393  0.01911685  0.52628819    -0.74740
O968        O  0.80771812  0.01161710  0.53578090    -0.74790
O969        O  0.78503406  0.47108795  0.47514865    -0.74720
O970        O  0.68922042  0.47658638  0.46768998    -0.74700
O971        O  0.76176510  0.01800587  0.43208711    -0.74670
O972        O  0.71268247  0.42896191  0.51062778    -0.74740
Ni973      Ni  0.76120123  0.01688497  0.53300611     1.25410
Ni974      Ni  0.73630954  0.47219054  0.46924965     1.25360
C975        C  0.71427576  0.43553455  0.55306481     0.87530
C976        C  0.78267013  0.05332211  0.44882703     0.87460
C977        C  0.68496257  0.49791502  0.49670704     0.87490
C978        C  0.81249260  0.49123590  0.50611025     0.87660
C979        C  0.53286786  0.49197388  0.49640295     0.02060
C980        C  0.99633192  0.45576154  0.49702327     0.02060
C981        C  0.96099352  0.45624146  0.50375562     0.02060
C982        C  0.96184559  0.49280248  0.50845381     0.02060
C983        C  0.99819420  0.02890555  0.50678225     0.02060
C984        C  0.53346428  0.02837153  0.50092668     0.02060
O985        O  0.75080798  0.23230529  0.42806290    -0.74650
O986        O  0.71433084  0.27397852  0.51631821    -0.74680
O987        O  0.78121669  0.30274377  0.47218486    -0.74740
O988        O  0.68394705  0.20345363  0.47199917    -0.74790
O989        O  0.71049750  0.18257142  0.52780825    -0.74720
O990        O  0.80820438  0.28115713  0.52637898    -0.74700
O991        O  0.74202704  0.25334633  0.57108266    -0.74670
O992        O  0.77725968  0.21048161  0.48291997    -0.74740
Ni993      Ni  0.73160278  0.25386456  0.47013693     1.25410
Ni994      Ni  0.76041843  0.23107825  0.52899927     1.25360
C995        C  0.77029804  0.21494869  0.44094265     0.87530
C996        C  0.72233132  0.27048470  0.55829175     0.87460
C997        C  0.81087388  0.30832830  0.49913639     0.87490
C998        C  0.68113779  0.17693227  0.50028885     0.87660
O999        O  0.89996698  0.42877896  0.96345369    -0.81120
O1000       O  0.55193334  0.02670154  0.08803737    -0.65810
O1001       O  0.96698159  0.49813359  0.99670808    -1.12410
C1002       C  0.54222039  0.45843010  0.91557139     1.05770
O1003       O  0.59437980  0.05830528  0.03646520    -0.79010
O1004       O  0.57548883  0.05625502  0.94797408    -0.66600
Ni1005     Ni  0.91306049  0.46707538  0.01079713     1.34870
C1006       C  0.54622549  0.05442003  0.92404993     0.84510
O1007       O  0.98686518  0.03434347  0.08309344    -0.79550
O1008       O  0.92203058  0.00424078  0.05816128    -0.89830
C1009       C  0.58724790  0.04921157  0.07741703     0.84080
O1010       O  0.91862395  0.43126638  0.05209963    -0.68030
O1011       O  0.57200293  0.48326144  0.94114536    -0.87320
C1012       C  0.94791762  0.43302696  0.07588406     0.84910
C1013       C  0.95180689  0.02892282  0.08387311     1.06480
H1014       H  0.52417032  0.46464753  0.01537954     0.38280
O1015       O  0.52724632  0.48919816  0.00301585    -1.09980
O1016       O  0.51116103  0.02490903  0.92396662    -0.66630
Ni1017     Ni  0.98611640  0.47534855  0.95573055     1.26350
O1018       O  0.98303858  0.46238436  0.07569409    -0.66860
O1019       O  0.50713520  0.45283158  0.91658049    -0.79150
C1020       C  0.90707949  0.43767667  0.92245716     0.84290
O1021       O  0.94229038  0.46054576  0.91180729    -0.66330
Ni1022     Ni  0.58112432  0.02023281  0.98882434     1.27450
Ni1023     Ni  0.50808118  0.01196054  0.04401090     1.26060
H1024       H  0.97007594  0.02268621  0.98434119     0.38840
O1025       O  0.71770568  0.28279492  0.63397082    -0.81120
O1026       O  0.62530440  0.33592350  0.75035735    -0.65810
O1027       O  0.65078220  0.28259514  0.66340340    -1.12410
C1028       C  0.69053186  0.40264472  0.58281879     1.05770
O1029       O  0.59307104  0.35065663  0.69633831    -0.79010
O1030       O  0.59231972  0.33568626  0.60859240    -0.66600
Ni1031     Ni  0.68259000  0.25940594  0.68157220     1.34870
C1032       C  0.59339158  0.30907184  0.58584428     0.84510
O1033       O  0.61603957  0.26271088  0.74729736    -0.79550
O1034       O  0.64942342  0.23214691  0.73000597    -0.89830
C1035       C  0.60356738  0.35051349  0.73791544     0.84080
O1036       O  0.72121842  0.30234547  0.71975135    -0.68030
O1037       O  0.66564590  0.40614488  0.60495902    -0.87320
C1038       C  0.71925806  0.32777246  0.74364839     0.84910
C1039       C  0.62405900  0.23477904  0.75209919     1.06480
H1040       H  0.68547763  0.37322301  0.68265050     0.38280
O1041       O  0.66065876  0.35237307  0.66861227    -1.09980
O1042       O  0.62313601  0.30411325  0.58794745    -0.66630
Ni1043     Ni  0.67318035  0.32693804  0.62354233     1.26350
O1044       O  0.68845470  0.33088245  0.74387382    -0.66860
O1045       O  0.69583491  0.37283296  0.58552804    -0.79090
C1046       C  0.70774892  0.28499664  0.59278747     0.84290
O1047       O  0.68589481  0.29960322  0.58145155    -0.66330
Ni1048     Ni  0.62978751  0.37648811  0.65053452     1.27450
Ni1049     Ni  0.63821046  0.30818508  0.70860283     1.26060
H1050       H  0.62600941  0.26154136  0.64938055     0.38840
O1051       O  0.74843644  0.35333851  0.81657243    -0.74650
O1052       O  0.83864986  0.40120065  0.90163414    -0.74680
O1053       O  0.79264168  0.42645657  0.85711447    -0.74740
O1054       O  0.79579034  0.32933873  0.86060103    -0.74790
O1055       O  0.83724814  0.35168433  0.80536111    -0.74720
O1056       O  0.83140071  0.44646712  0.79957804    -0.74700
O1057       O  0.87946569  0.42423820  0.84573774    -0.74670
O1058       O  0.78846603  0.37213859  0.75995988    -0.74740
Ni1059     Ni  0.79238402  0.37692054  0.86093094     1.25410
Ni1060     Ni  0.83551217  0.39954545  0.80054009     1.25360
C1061       C  0.75365570  0.35300864  0.77460047     0.87530
C1062       C  0.87369599  0.42023520  0.88802879     0.87460
C1063       C  0.81236056  0.45299565  0.82831303     0.87490
C1064       C  0.81744153  0.32483850  0.83359183     0.87660
C1065       C  0.78929690  0.14507370  0.82623483     0.02060
C1066       C  0.82568332  0.18118288  0.82846186     0.02060
C1067       C  0.86193302  0.18131411  0.82945482     0.02060
C1068       C  0.86201571  0.14495949  0.82923316     0.02060
C1069       C  0.82522576  0.10845636  0.82608318     0.02060
C1070       C  0.78894774  0.10874088  0.82415751     0.02060
O1071       O  0.54429523  0.08015411  0.85109754    -0.74650
O1072       O  0.58421197  0.16692764  0.76871871    -0.74680
O1073       O  0.61242671  0.12296308  0.80945139    -0.74740
O1074       O  0.51530018  0.12472778  0.80964821    -0.74790
O1075       O  0.53955046  0.16551105  0.87005599    -0.74720
O1076       O  0.63899977  0.16794164  0.86585091    -0.74700
O1077       O  0.60730641  0.21047777  0.82658695    -0.74670
O1078       O  0.57282469  0.12329486  0.90921782    -0.74740
Ni1079     Ni  0.56290214  0.12212142  0.80775633     1.25410
Ni1080     Ni  0.59034781  0.16835534  0.87010033     1.25360
C1081       C  0.55409537  0.08749270  0.89350978     0.87530
C1082       C  0.60326627  0.20279665  0.78404576     0.87460
C1083       C  0.64189645  0.14550995  0.83718154     0.87490
C1084       C  0.51145217  0.14553900  0.83956572     0.87660
O1085       O  0.57250962  0.38640657  0.75684752    -0.74650
O1086       O  0.54016891  0.43567180  0.84117137    -0.74680
O1087       O  0.60665954  0.45957374  0.79644590    -0.74740
O1088       O  0.50697776  0.36213789  0.80150293    -0.74790
O1089       O  0.53295229  0.34280252  0.85944092    -0.74720
O1090       O  0.63241046  0.43888131  0.85331247    -0.74700
O1091       O  0.56765619  0.41689431  0.89814360    -0.74670
O1092       O  0.59822916  0.36570856  0.81370611    -0.74740
Ni1093     Ni  0.55557347  0.41168253  0.79699985     1.25410
Ni1094     Ni  0.58360327  0.39027257  0.85821431     1.25360
C1095       C  0.59050607  0.36794040  0.77124664     0.87530
C1096       C  0.54969173  0.43536174  0.88342087     0.87460
C1097       C  0.63585697  0.46513970  0.82437440     0.87490
C1098       C  0.50406310  0.33599401  0.83054088     0.87660
C1099       C  0.90070188  0.14546865  0.83308074    -0.00380
C1100       C  0.92387661  0.15710015  0.79571110    -0.12260
C1101       C  0.96016932  0.15780368  0.79759792     0.01860
C1102       C  0.97421687  0.14707318  0.83768965    -0.00470
C1103       C  0.95184559  0.13683118  0.87572982    -0.12190
C1104       C  0.91522964  0.13579535  0.87363943     0.01740
H1105       H  0.91340902  0.16542835  0.76476881     0.14720
H1106       H  0.96261429  0.12890708  0.90679257     0.14720
C1107       C  0.89327541  0.12515610  0.91357775     0.36370
C1108       C  0.48318272  0.17098484  0.75841061     0.36280
N1109       N  0.87564619  0.11660600  0.94559254    -0.43970
N1110       N  0.50177509  0.18175658  0.72714609    -0.43970
C1111       C  0.67983489  0.14579427  0.83527361    -0.00380
C1112       C  0.69139639  0.14176813  0.79287470    -0.12260
C1113       C  0.72698695  0.14191541  0.78907938     0.01860
C1114       C  0.75138505  0.14536552  0.82829826    -0.00470
C1115       C  0.73977037  0.14904209  0.87072578    -0.12190
C1116       C  0.70451326  0.14957545  0.87453539     0.01740
H1117       H  0.67284153  0.13913364  0.76245444     0.14720
H1118       H  0.75829936  0.15126826  0.90100122     0.14720
C1119       C  0.69366304  0.15238992  0.91920800     0.36370
C1120       C  0.73797066  0.13909322  0.74454230     0.36280
N1121       N  0.68493661  0.15456724  0.95503099    -0.43970
N1122       N  0.74633326  0.13699296  0.70849730    -0.43970
C1123       C  0.67430735  0.00239928  0.82395624    -0.00380
C1124       C  0.69357731  0.01438941  0.78368027    -0.12260
C1125       C  0.73148282  0.04824283  0.78312058     0.01860
C1126       C  0.75010448  0.07095257  0.82322352    -0.00470
C1127       C  0.73065317  0.05900040  0.86332976    -0.12190
C1128       C  0.69312668  0.02502825  0.86405400     0.01740
H1129       H  0.67936010  0.49680614  0.75290639     0.14720
H1130       H  0.74486065  0.07653465  0.89413817     0.14720
C1131       C  0.67407571  0.01476345  0.90609903     0.36370
C1132       C  0.75041375  0.05905080  0.74106929     0.36280
N1133       N  0.65901467  0.00678408  0.93992323    -0.43970
N1134       N  0.76514161  0.06732640  0.70703057    -0.43970
C1135       C  0.89971044  0.22008383  0.83069623    -0.00380
C1136       C  0.91476740  0.23774728  0.78963705    -0.12260
C1137       C  0.94826897  0.27575797  0.78881473     0.01860
C1138       C  0.96745143  0.29667679  0.82986472    -0.00470
C1139       C  0.95280767  0.27858265  0.87105903    -0.12190
C1140       C  0.91893480  0.24068486  0.87172022     0.01740
H1141       H  0.90013555  0.22176608  0.75808467     0.14720
H1142       H  0.96757994  0.29429761  0.90274198     0.14720
C1143       C  0.90404575  0.22374648  0.91469790     0.36370
C1144       C  0.96327449  0.29178543  0.74552253     0.36280
N1145       N  0.89202285  0.21028272  0.94917456    -0.43970
N1146       N  0.97534724  0.30454433  0.71083514    -0.43970
C1147       C  0.81456873  0.49237923  0.82841877    -0.00380
C1148       C  0.82967710  0.01729226  0.79106526    -0.12260
C1149       C  0.83414400  0.05532264  0.78987965     0.01860
C1150       C  0.82401125  0.06955630  0.82690891    -0.00470
C1151       C  0.80943832  0.04514508  0.86446288    -0.12190
C1152       C  0.80414758  0.50678060  0.86542193     0.01740
H1153       H  0.83770356  0.00693380  0.76221806     0.14720
H1154       H  0.80158562  0.05602821  0.89301312     0.14720
C1155       C  0.78823909  0.48342194  0.90507551     0.36370
C1156       C  0.84789333  0.07844607  0.74959559     0.36280
N1157       N  0.77528007  0.46487132  0.93691020    -0.43970
N1158       N  0.85880917  0.09661999  0.71703395    -0.43970
C1159       C  0.81955305  0.28807907  0.83370256    -0.00380
C1160       C  0.82310604  0.27387846  0.79218569    -0.12260
C1161       C  0.82570279  0.23950218  0.78992998     0.01860
C1162       C  0.82545600  0.21911103  0.82984664    -0.00470
C1163       C  0.82266935  0.23352933  0.87151660    -0.12190
C1164       C  0.81933478  0.26760089  0.87375689     0.01740
H1165       H  0.82324440  0.28937823  0.76120359     0.14720
H1166       H  0.82256508  0.21775833  0.90222860     0.14720
C1167       C  0.81686966  0.28141273  0.91753263     0.36370
C1168       C  0.82831125  0.22561489  0.74628526     0.36280
N1169       N  0.81486826  0.29246096  0.95262498    -0.43970
N1170       N  0.83062854  0.21476237  0.71122769    -0.43970
C1171       C  0.57150164  0.06649608  0.50011257    -0.00380
C1172       C  0.59032883  0.08660446  0.54118898    -0.12260
C1173       C  0.62608454  0.12281185  0.54199403     0.01860
C1174       C  0.64339239  0.13918617  0.50105384    -0.00470
C1175       C  0.62408962  0.11943442  0.45989890    -0.12190
C1176       C  0.58833710  0.08321397  0.45914228     0.01740
H1177       H  0.57687819  0.07399256  0.57259257     0.14720
H1178       H  0.63711014  0.13223680  0.42833776     0.14720
C1179       C  0.56884945  0.06447751  0.41597972     0.36370
C1180       C  0.64330220  0.14355172  0.58485280     0.36280
N1181       N  0.55319039  0.04988238  0.38121044    -0.43970
N1182       N  0.65694629  0.16034236  0.61912641    -0.43970
C1183       C  0.92244326  0.41838347  0.50352301    -0.00380
C1184       C  0.89516850  0.40914415  0.46583366    -0.12260
C1185       C  0.85858516  0.37377003  0.46343300     0.01860
C1186       C  0.84882385  0.34665298  0.49952777    -0.00470
C1187       C  0.87622224  0.35628654  0.53743701    -0.12190
C1188       C  0.91261138  0.39183452  0.53985290     0.01740
H1189       H  0.90278460  0.42961826  0.43787907     0.14720
H1190       H  0.86907372  0.33620130  0.56573607     0.14720
C1191       C  0.93869759  0.40059453  0.58047051     0.36370
C1192       C  0.83248527  0.36606982  0.42298984     0.36280
N1193       N  0.95920169  0.40718548  0.61332901    -0.43970
N1194       N  0.81173195  0.36017198  0.39049003    -0.43970
C1195       C  0.92400150  0.49338008  0.50977744    -0.00380
C1196       C  0.90882413  0.00258690  0.46989381    -0.12260
C1197       C  0.87249646  0.00168758  0.46797689     0.01860
C1198       C  0.85073669  0.49191579  0.50680945    -0.00470
C1199       C  0.86625379  0.48348830  0.54707328    -0.12190
C1200       C  0.90234078  0.48361666  0.54871030     0.01740
H1201       H  0.92526399  0.00993178  0.43985275     0.14720
H1202       H  0.84978148  0.47611378  0.57708318     0.14720
C1203       C  0.91628125  0.47374555  0.59073258     0.36370
C1204       C  0.85886523  0.01179118  0.42585863     0.36280
N1205       N  0.92676712  0.46581546  0.62494821    -0.43970
N1206       N  0.84852287  0.01979741  0.39161536    -0.43970
C1207       C  0.64637304  0.49709152  0.49687501    -0.00380
C1208       C  0.62044198  0.48482308  0.45742432    -0.12260
C1209       C  0.58346386  0.48277886  0.45622129     0.01860
C1210       C  0.57126331  0.49223593  0.49542364    -0.00470
C1211       C  0.59673336  0.00378677  0.53502778    -0.12190
C1212       C  0.63404943  0.00680632  0.53607297     0.01740
H1213       H  0.62934213  0.47740939  0.42703119     0.14720
H1214       H  0.58741047  0.01082051  0.56535415     0.14720
C1215       C  0.65839320  0.01926214  0.57831412     0.36370
C1216       C  0.55959585  0.47227150  0.41380070     0.36280
N1217       N  0.67779152  0.02945099  0.61222482    -0.43970
N1218       N  0.54149935  0.46414771  0.37903997    -0.43970
C1219       C  0.00346560  0.14246737  0.50649633    -0.00380
C1220       C  0.50045124  0.12245985  0.54745601    -0.12260
C1221       C  0.49885528  0.08559700  0.54847131     0.01860
C1222       C  0.99923962  0.06770103  0.50785054    -0.00470
C1223       C  0.00191042  0.08738505  0.46698005    -0.12190
C1224       C  0.00427459  0.12446941  0.46588655     0.01740
H1225       H  0.49991544  0.13591438  0.57884100     0.14720
H1226       H  0.00196172  0.07351068  0.43568944     0.14720
C1227       C  0.00585412  0.14236393  0.42224666     0.36370
C1228       C  0.49817423  0.06741682  0.59163827     0.36280
N1229       N  0.00713926  0.15655916  0.38718198    -0.43970
N1230       N  0.49807460  0.05332722  0.62650035    -0.43970
C1231       C  0.99188663  0.34296142  0.49503930    -0.00380
C1232       C  0.97875902  0.35536294  0.45599574    -0.12260
C1233       C  0.97924026  0.39167313  0.45587706     0.01860
C1234       C  0.99555189  0.41720647  0.49437447    -0.00470
C1235       C  0.00989064  0.40524256  0.53267144    -0.12190
C1236       C  0.00659711  0.36782672  0.53402384     0.01740
H1237       H  0.96708498  0.33616041  0.42610310     0.14720
H1238       H  0.02217907  0.42465179  0.56237698     0.14720
C1239       C  0.51754385  0.35542690  0.57631697     0.36370
C1240       C  0.96265750  0.40182200  0.41610925     0.36280
N1241       N  0.52538240  0.34560200  0.61085768    -0.43970
N1242       N  0.94913631  0.40962575  0.38412251    -0.43970
C1243       C  0.67688204  0.19894737  0.16444318    -0.00380
C1244       C  0.66946943  0.21172565  0.20465744    -0.12260
C1245       C  0.66704193  0.24627890  0.20605721     0.01860
C1246       C  0.67071722  0.26804306  0.16633705    -0.00470
C1247       C  0.67813190  0.25550456  0.12609392    -0.12190
C1248       C  0.68181175  0.22157180  0.12491745     0.01740
H1249       H  0.66646118  0.19514653  0.23549977     0.14720
H1250       H  0.68135682  0.27255426  0.09562073     0.14720
C1251       C  0.69003786  0.21054798  0.08263026     0.36370
C1252       C  0.66258477  0.25972020  0.24902710     0.36280
N1253       N  0.69692237  0.20196376  0.04875535    -0.43970
N1254       N  0.65949433  0.27044735  0.28377103    -0.43970
C1255       C  0.67901452  0.49325130  0.17188655    -0.00380
C1256       C  0.66957796  0.47233354  0.13055771    -0.12260
C1257       C  0.66467860  0.43412032  0.12890884     0.01860
C1258       C  0.66986936  0.41654323  0.16902919    -0.00470
C1259       C  0.67972680  0.43755833  0.21027464    -0.12190
C1260       C  0.68397808  0.47548527  0.21208015     0.01740
H1261       H  0.66542975  0.48565158  0.09956363     0.14720
H1262       H  0.68449558  0.42436415  0.24103843     0.14720
C1263       C  0.69507337  0.49621867  0.25522938     0.36370
C1264       C  0.65540887  0.41392823  0.08561885     0.36280
N1265       N  0.70409741  0.01288760  0.28979491    -0.43970
N1266       N  0.64816294  0.39785036  0.05086735    -0.43970
C1267       C  0.52929923  0.18821779  0.17000227    -0.00380
C1268       C  0.54083926  0.21415393  0.20732768    -0.12260
C1269       C  0.57363225  0.25271334  0.20640808     0.01860
C1270       C  0.59548483  0.26560266  0.16760269    -0.00470
C1271       C  0.58402716  0.23924371  0.13052431    -0.12190
C1272       C  0.55121548  0.20080667  0.13144016     0.01740
H1273       H  0.52366418  0.20452214  0.23685643     0.14720
H1274       H  0.60114890  0.24865630  0.10098372     0.14720
C1275       C  0.54126519  0.17430832  0.09312205     0.36370
C1276       C  0.58468194  0.27799450  0.24604858     0.36280
N1277       N  0.53336895  0.15288852  0.06263109    -0.43970
N1278       N  0.59334605  0.29801435  0.27803393    -0.43970
C1279       C  0.74361702  0.41621996  0.17217051    -0.00380
C1280       C  0.75546298  0.43835420  0.13279662    -0.12260
C1281       C  0.79217003  0.47339260  0.13247761     0.01860
C1282       C  0.81820342  0.48671497  0.17238132    -0.00470
C1283       C  0.80604281  0.46446271  0.21199289    -0.12190
C1284       C  0.76883746  0.42968355  0.21227848     0.01740
H1285       H  0.73608777  0.42781384  0.10193472     0.14720
H1286       H  0.82532883  0.47456412  0.24295742     0.14720
C1287       C  0.75682773  0.40860262  0.25413368     0.36370
C1288       C  0.80248990  0.99408134  0.09012935     0.36280
N1289       N  0.74712992  0.39168919  0.28766932    -0.43970
N1290       N  0.81048270  0.01058015  0.05613498    -0.43970
C1291       C  0.52211656  0.34319377  0.16297446    -0.00380
C1292       C  0.53051336  0.32739903  0.12586767    -0.12260
C1293       C  0.56607578  0.32660656  0.12585740     0.01860
C1294       C  0.59389225  0.34107382  0.16389712    -0.00470
C1295       C  0.58562559  0.35673903  0.20088992    -0.12190
C1296       C  0.55054909  0.35820391  0.20082250     0.01740
H1297       H  0.00952938  0.31614765  0.09632773     0.14720
H1298       H  0.60680930  0.36782143  0.23027145     0.14720
C1299       C  0.54486178  0.37494930  0.24061685     0.36370
C1300       C  0.57386709  0.31209626  0.08576029     0.36280
N1301       N  0.54062475  0.38856134  0.27256288    -0.43970
N1302       N  0.57996452  0.30053009  0.05344175    -0.43970
C1303       C  0.74341291  0.34231434  0.16549752    -0.00380
C1304       C  0.76036963  0.33474715  0.20506581    -0.12260
C1305       C  0.79573103  0.33400481  0.20464930     0.01860
C1306       C  0.81408287  0.33990674  0.16371131    -0.00470
C1307       C  0.79654915  0.34644025  0.12382029    -0.12190
C1308       C  0.76160840  0.34810071  0.12452956     0.01740
H1309       H  0.74584963  0.32936785  0.23632224     0.14720
H1310       H  0.81062402  0.35107522  0.09232216     0.14720
C1311       C  0.74462338  0.35524245  0.08286965     0.36370
C1312       C  0.81197358  0.32614063  0.24643789     0.36280
N1313       N  0.73096350  0.36099793  0.04952528    -0.43970
N1314       N  0.82482666  0.31993464  0.28011329    -0.43970
O1315       O  0.90217937  0.63673143  0.30387118    -0.81120
O1316       O  0.80903127  0.68817827  0.41830371    -0.65810
O1317       O  0.83467146  0.63530297  0.33166001    -1.12410
C1318       C  0.87040785  0.75233781  0.24753169     1.05770
O1319       O  0.77631674  0.70365755  0.36537453    -0.79010
O1320       O  0.77310508  0.68360890  0.27981206    -0.66600
Ni1321     Ni  0.86546541  0.61110912  0.34970870     1.34870
C1322       C  0.77557432  0.65850353  0.25589308     0.84510
O1323       O  0.80001908  0.61542039  0.41535305    -0.79550
O1324       O  0.82991873  0.58200159  0.39559063    -0.89830
C1325       C  0.78610729  0.70153096  0.40666053     0.84080
O1326       O  0.90302503  0.65154809  0.39174301    -0.68030
O1327       O  0.84444851  0.75436647  0.26909790    -0.87320
C1328       C  0.90194679  0.67812888  0.41457627     0.84910
C1329       C  0.80560707  0.58582621  0.41836222     1.06480
H1330       H  0.86859698  0.72619752  0.35027745     0.38280
O1331       O  0.84396419  0.70484185  0.33635476    -1.09980
O1332       O  0.80678689  0.65611625  0.25573110    -0.66630
Ni1333     Ni  0.85693116  0.67938472  0.29144775     1.26350
O1334       O  0.87250770  0.68371866  0.41199169    -0.66860
O1335       O  0.87899247  0.72482974  0.25273071    -0.79150
C1336       C  0.89191078  0.63728212  0.26230590     0.84290
O1337       O  0.87024232  0.65192977  0.24991511    -0.66330
Ni1338     Ni  0.81139516  0.72708483  0.31766529     1.27450
Ni1339     Ni  0.82214978  0.66083719  0.37665135     1.26060
H1340       H  0.80982125  0.61442551  0.31772631     0.38840
C1341       C  0.70536136  0.84205015  0.16733705     0.02060
C1342       C  0.70523675  0.87803110  0.16980822     0.02060
C1343       C  0.66887955  0.87779752  0.16823480     0.02060
C1344       C  0.63231606  0.84112854  0.16581697     0.02060
C1345       C  0.63281716  0.80483011  0.16658013     0.02060
C1346       C  0.66942814  0.80557988  0.16663168     0.02060
O1347       O  0.70634242  0.61429436  0.23964433    -0.74650
O1348       O  0.61513562  0.56200479  0.15413458    -0.74680
O1349       O  0.66298439  0.53951125  0.20114851    -0.74740
O1350       O  0.65806973  0.63502675  0.19344269    -0.74790
O1351       O  0.70010375  0.65664569  0.13886928    -0.74720
O1352       O  0.70070246  0.55819090  0.14245183    -0.74700
O1353       O  0.65580903  0.58478449  0.09809826    -0.74670
O1354       O  0.74633759  0.63145045  0.18316324    -0.74740
Ni1355     Ni  0.65924563  0.58679396  0.19921363     1.25410
Ni1356     Ni  0.70223902  0.60837175  0.13870411     1.25360
C1357       C  0.74118128  0.63274093  0.22503446     0.87530
C1358       C  0.62077001  0.56608691  0.11180363     0.87460
C1359       C  0.68146284  0.53244686  0.17217328     0.87490
C1360       C  0.67846658  0.66174360  0.16531546     0.87660
O1361       O  0.94886285  0.90739702  0.14910254    -0.74650
O1362       O  0.91029944  0.82034624  0.23121331    -0.74680
O1363       O  0.97921438  0.86428471  0.19042052    -0.74740
O1364       O  0.88096510  0.86320360  0.19055429    -0.74790
O1365       O  0.85566842  0.81927844  0.13295740    -0.74720
O1366       O  0.95561451  0.82238012  0.13135484    -0.74700
O1367       O  0.88718923  0.77694917  0.17320044    -0.74670
O1368       O  0.92243358  0.86430510  0.09078354    -0.74740
Ni1369     Ni  0.93093900  0.86534088  0.19229686     1.25410
Ni1370     Ni  0.90459202  0.81919004  0.12988902     1.25360
C1371       C  0.94007187  0.90005550  0.10656620     0.87530
C1372       C  0.89122282  0.78449930  0.21575521     0.87460
C1373       C  0.98381673  0.84335735  0.16141665     0.87490
C1374       C  0.85205614  0.84074870  0.16227432     0.87660
O1375       O  0.89860498  0.62378969  0.18641244    -0.74650
O1376       O  0.92690079  0.57090884  0.10154374    -0.74680
O1377       O  0.86232583  0.55125834  0.14592116    -0.74740
O1378       O  0.96363313  0.64446467  0.14102286    -0.74790
O1379       O  0.98774768  0.62396529  0.19978415    -0.74720
O1380       O  0.88630121  0.52763827  0.20121869    -0.74700
O1381       O  0.95357616  0.55110610  0.15834040    -0.74670
O1382       O  0.92148638  0.60013707  0.24305508    -0.74740
Ni1383     Ni  0.91215324  0.59848634  0.14169846     1.25410
Ni1384     Ni  0.93820306  0.57490142  0.20265535     1.25360
C1385       C  0.90499077  0.62006056  0.22884604     0.87530
C1386       C  0.94438658  0.55192923  0.11611151     0.87460
C1387       C  0.85755563  0.52365112  0.17339779     0.87490
C1388       C  0.99194174  0.65008924  0.17013055     0.87660
O1389       O  0.52445186  0.76257831  0.57075331    -0.74650
O1390       O  0.93211033  0.70404330  0.48815249    -0.74680
O1391       O  0.98367021  0.68650937  0.53474387    -0.74740
O1392       O  0.97308520  0.77915535  0.52466230    -0.74790
O1393       O  0.51089785  0.79898935  0.46595004    -0.74720
O1394       O  0.52240493  0.70691179  0.47703229    -0.74700
O1395       O  0.97088573  0.72320745  0.43035990    -0.74670
O1396       O  0.56295716  0.78240631  0.51270175    -0.74740
Ni1397     Ni  0.97694411  0.73224544  0.53164972     1.25410
Ni1398     Ni  0.51816717  0.75364573  0.46946980     1.25360
C1399       C  0.55867143  0.78317147  0.55504018     0.87530
C1400       C  0.93653088  0.70332346  0.44581456     0.87460
C1401       C  0.00359021  0.68070649  0.50644232     0.87490
C1402       C  0.99133134  0.80485570  0.49463215     0.87660
O1403       O  0.73451085  0.97090328  0.56995319    -0.74650
O1404       O  0.78563463  0.56000285  0.49147558    -0.74680
O1405       O  0.71328393  0.51911684  0.52628821    -0.74740
O1406       O  0.80771811  0.51161709  0.53578090    -0.74790
O1407       O  0.78503408  0.97108796  0.47514864    -0.74720
O1408       O  0.68922042  0.97658638  0.46768997    -0.74700
O1409       O  0.76176510  0.51800586  0.43208712    -0.74670
O1410       O  0.71268248  0.92896192  0.51062778    -0.74740
Ni1411     Ni  0.76120123  0.51688496  0.53300612     1.25410
Ni1412     Ni  0.73630955  0.97219055  0.46924964     1.25360
C1413       C  0.71427577  0.93553456  0.55306480     0.87530
C1414       C  0.78267013  0.55332210  0.44882704     0.87460
C1415       C  0.68496258  0.99791502  0.49670702     0.87490
C1416       C  0.81249261  0.99123592  0.50611024     0.87660
C1417       C  0.53286786  0.99197387  0.49640292     0.02060
C1418       C  0.99633192  0.95576154  0.49702324     0.02060
C1419       C  0.96099352  0.95624146  0.50375560     0.02060
C1420       C  0.96184560  0.99280248  0.50845380     0.02060
C1421       C  0.99819419  0.52890555  0.50678227     0.02060
C1422       C  0.53346428  0.52837153  0.50092671     0.02060
O1423       O  0.75080798  0.73230528  0.42806290    -0.74650
O1424       O  0.71433084  0.77397852  0.51631820    -0.74680
O1425       O  0.78121669  0.80274377  0.47218485    -0.74740
O1426       O  0.68394705  0.70345362  0.47199918    -0.74790
O1427       O  0.71049750  0.68257142  0.52780826    -0.74720
O1428       O  0.80820438  0.78115713  0.52637898    -0.74700
O1429       O  0.74202705  0.75334634  0.57108266    -0.74670
O1430       O  0.77725968  0.71048161  0.48291997    -0.74740
Ni1431     Ni  0.73160278  0.75386455  0.47013694     1.25410
Ni1432     Ni  0.76041844  0.73107825  0.52899927     1.25360
C1433       C  0.77029803  0.71494868  0.44094265     0.87530
C1434       C  0.72233133  0.77048471  0.55829175     0.87460
C1435       C  0.81087389  0.80832830  0.49913638     0.87490
C1436       C  0.68113779  0.67693227  0.50028887     0.87660
O1437       O  0.89996697  0.92877896  0.96345370    -0.81120
O1438       O  0.55193334  0.52670154  0.08803737    -0.65810
O1439       O  0.96698159  0.99813358  0.99670809    -1.12410
C1440       C  0.54222039  0.95843010  0.91557140     1.05770
O1441       O  0.59437980  0.55830528  0.03646520    -0.79010
O1442       O  0.57548884  0.55625503  0.94797408    -0.66600
Ni1443     Ni  0.91306048  0.96707537  0.01079714     1.34870
C1444       C  0.54622549  0.55442003  0.92404993     0.84510
O1445       O  0.98686518  0.53434347  0.08309343    -0.79550
O1446       O  0.92203058  0.50424079  0.05816128    -0.89830
C1447       C  0.58724790  0.54921157  0.07741703     0.84080
O1448       O  0.91862394  0.93126638  0.05209963    -0.68030
O1449       O  0.57200293  0.98326143  0.94114537    -0.87320
C1450       C  0.94791762  0.93302696  0.07588407     0.84910
C1451       C  0.95180689  0.52892283  0.08387310     1.06480
H1452       H  0.52417032  0.96464753  0.01537955     0.38280
O1453       O  0.52724632  0.98919816  0.00301585    -1.09980
O1454       O  0.51116103  0.52490903  0.92396662    -0.66630
Ni1455     Ni  0.98611640  0.97534854  0.95573056     1.26350
O1456       O  0.98303857  0.96238435  0.07569409    -0.66860
O1457       O  0.50713520  0.95283158  0.91658049    -0.79150
C1458       C  0.90707948  0.93767666  0.92245717     0.84290
O1459       O  0.94229038  0.96054575  0.91180730    -0.66330
Ni1460     Ni  0.58112433  0.52023282  0.98882433     1.27450
Ni1461     Ni  0.50808119  0.51196054  0.04401089     1.26060
H1462       H  0.97007594  0.52268621  0.98434118     0.38840
O1463       O  0.71770569  0.78279493  0.63397082    -0.81120
O1464       O  0.62530441  0.83592351  0.75035734    -0.65810
O1465       O  0.65078221  0.78259515  0.66340340    -1.12410
C1466       C  0.69053187  0.90264473  0.58281878     1.05770
O1467       O  0.59307105  0.85065664  0.69633831    -0.79010
O1468       O  0.59231973  0.83568627  0.60859240    -0.66600
Ni1469     Ni  0.68259000  0.75940595  0.68157220     1.34870
C1470       C  0.59339158  0.80907185  0.58584428     0.84510
O1471       O  0.61603957  0.76271089  0.74729735    -0.79550
O1472       O  0.64942342  0.73214692  0.73000596    -0.89830
C1473       C  0.60356739  0.85051350  0.73791543     0.84080
O1474       O  0.72121842  0.80234548  0.71975135    -0.68030
O1475       O  0.66564591  0.90614489  0.60495901    -0.87320
C1476       C  0.71925806  0.82777247  0.74364839     0.84910
C1477       C  0.62405900  0.73477904  0.75209918     1.06480
H1478       H  0.68547764  0.87322301  0.68265049     0.38280
O1479       O  0.66065876  0.85237308  0.66861227    -1.09980
O1480       O  0.62313602  0.80411326  0.58794744    -0.66630
Ni1481     Ni  0.67318035  0.82693805  0.62354233     1.26350
O1482       O  0.68845471  0.83088246  0.74387382    -0.66860
O1483       O  0.69583492  0.87283297  0.58552804    -0.79090
C1484       C  0.70774892  0.78499664  0.59278747     0.84290
O1485       O  0.68589482  0.79960322  0.58145155    -0.66330
Ni1486     Ni  0.62978752  0.87648812  0.65053451     1.27450
Ni1487     Ni  0.63821046  0.80818509  0.70860283     1.26060
H1488       H  0.62600941  0.76154137  0.64938055     0.38840
O1489       O  0.74843644  0.85333852  0.81657243    -0.74650
O1490       O  0.83864985  0.90120065  0.90163415    -0.74680
O1491       O  0.79264168  0.92645657  0.85711447    -0.74740
O1492       O  0.79579034  0.82933872  0.86060103    -0.74790
O1493       O  0.83724814  0.85168433  0.80536112    -0.74720
O1494       O  0.83140071  0.94646712  0.79957805    -0.74700
O1495       O  0.87946569  0.92423820  0.84573774    -0.74670
O1496       O  0.78846604  0.87213859  0.75995989    -0.74740
Ni1497     Ni  0.79238402  0.87692054  0.86093094     1.25410
Ni1498     Ni  0.83551217  0.89954545  0.80054010     1.25360
C1499       C  0.75365570  0.85300864  0.77460047     0.87530
C1500       C  0.87369599  0.92023520  0.88802880     0.87460
C1501       C  0.81236056  0.95299565  0.82831304     0.87490
C1502       C  0.81744153  0.82483850  0.83359183     0.87660
C1503       C  0.78929690  0.64507370  0.82623483     0.02060
C1504       C  0.82568332  0.68118288  0.82846186     0.02060
C1505       C  0.86193302  0.68131412  0.82945482     0.02060
C1506       C  0.86201571  0.64495949  0.82923316     0.02060
C1507       C  0.82522576  0.60845636  0.82608318     0.02060
C1508       C  0.78894774  0.60874087  0.82415750     0.02060
O1509       O  0.54429523  0.58015412  0.85109754    -0.74650
O1510       O  0.58421197  0.66692765  0.76871870    -0.74680
O1511       O  0.61242672  0.62296308  0.80945138    -0.74740
O1512       O  0.51530018  0.62472778  0.80964821    -0.74790
O1513       O  0.53955047  0.66551106  0.87005599    -0.74720
O1514       O  0.63899977  0.66794164  0.86585090    -0.74700
O1515       O  0.60730641  0.71047777  0.82658694    -0.74670
O1516       O  0.57282469  0.62329486  0.90921781    -0.74740
Ni1517     Ni  0.56290214  0.62212142  0.80775633     1.25410
Ni1518     Ni  0.59034782  0.66835534  0.87010032     1.25360
C1519       C  0.55409538  0.58749271  0.89350977     0.87530
C1520       C  0.60326627  0.70279665  0.78404575     0.87460
C1521       C  0.64189645  0.64550996  0.83718153     0.87490
C1522       C  0.51145217  0.64553900  0.83956572     0.87660
O1523       O  0.57250962  0.88640657  0.75684752    -0.74650
O1524       O  0.54016891  0.93567180  0.84117137    -0.74680
O1525       O  0.60665954  0.95957374  0.79644591    -0.74740
O1526       O  0.50697776  0.86213789  0.80150293    -0.74790
O1527       O  0.53295229  0.84280252  0.85944092    -0.74720
O1528       O  0.63241046  0.93888131  0.85331247    -0.74700
O1529       O  0.56765619  0.91689431  0.89814360    -0.74670
O1530       O  0.59822916  0.86570857  0.81370610    -0.74740
Ni1531     Ni  0.55557347  0.91168253  0.79699985     1.25410
Ni1532     Ni  0.58360327  0.89027257  0.85821431     1.25360
C1533       C  0.59050607  0.86794041  0.77124664     0.87530
C1534       C  0.54969173  0.93536174  0.88342087     0.87460
C1535       C  0.63585697  0.96513970  0.82437440     0.87490
C1536       C  0.50406311  0.83599401  0.83054088     0.87660
C1537       C  0.90070188  0.64546865  0.83308074    -0.00380
C1538       C  0.92387661  0.65710015  0.79571110    -0.12260
C1539       C  0.96016932  0.65780369  0.79759792     0.01860
C1540       C  0.97421687  0.64707319  0.83768965    -0.00470
C1541       C  0.95184559  0.63683118  0.87572982    -0.12190
C1542       C  0.91522964  0.63579534  0.87363943     0.01740
H1543       H  0.91340902  0.66542836  0.76476881     0.14720
H1544       H  0.96261429  0.62890708  0.90679256     0.14720
C1545       C  0.89327541  0.62515610  0.91357774     0.36370
C1546       C  0.48318272  0.67098484  0.75841061     0.36280
N1547       N  0.87564619  0.61660600  0.94559254    -0.43970
N1548       N  0.50177510  0.68175658  0.72714609    -0.43970
C1549       C  0.67983489  0.64579427  0.83527360    -0.00380
C1550       C  0.69139640  0.64176813  0.79287469    -0.12260
C1551       C  0.72698695  0.64191541  0.78907938     0.01860
C1552       C  0.75138505  0.64536552  0.82829826    -0.00470
C1553       C  0.73977037  0.64904209  0.87072578    -0.12190
C1554       C  0.70451326  0.64957545  0.87453539     0.01740
H1555       H  0.67284153  0.63913364  0.76245444     0.14720
H1556       H  0.75829936  0.65126826  0.90100121     0.14720
C1557       C  0.69366304  0.65238992  0.91920800     0.36370
C1558       C  0.73797066  0.63909322  0.74454229     0.36280
N1559       N  0.68493661  0.65456724  0.95503098    -0.43970
N1560       N  0.74633326  0.63699296  0.70849730    -0.43970
C1561       C  0.67430735  0.50239928  0.82395624    -0.00380
C1562       C  0.69357731  0.51438941  0.78368027    -0.12260
C1563       C  0.73148282  0.54824283  0.78312058     0.01860
C1564       C  0.75010448  0.57095257  0.82322352    -0.00470
C1565       C  0.73065317  0.55900040  0.86332975    -0.12190
C1566       C  0.69312668  0.52502825  0.86405400     0.01740
H1567       H  0.67936010  0.99680614  0.75290639     0.14720
H1568       H  0.74486065  0.57653465  0.89413817     0.14720
C1569       C  0.67407571  0.51476345  0.90609903     0.36370
C1570       C  0.75041375  0.55905080  0.74106928     0.36280
N1571       N  0.65901467  0.50678408  0.93992322    -0.43970
N1572       N  0.76514161  0.56732640  0.70703056    -0.43970
C1573       C  0.89971044  0.72008383  0.83069623    -0.00380
C1574       C  0.91476740  0.73774728  0.78963705    -0.12260
C1575       C  0.94826897  0.77575797  0.78881473     0.01860
C1576       C  0.96745143  0.79667679  0.82986472    -0.00470
C1577       C  0.95280767  0.77858265  0.87105903    -0.12190
C1578       C  0.91893480  0.74068486  0.87172022     0.01740
H1579       H  0.90013555  0.72176609  0.75808467     0.14720
H1580       H  0.96757994  0.79429761  0.90274198     0.14720
C1581       C  0.90404575  0.72374647  0.91469790     0.36370
C1582       C  0.96327449  0.79178543  0.74552253     0.36280
N1583       N  0.89202285  0.71028272  0.94917456    -0.43970
N1584       N  0.97534724  0.80454433  0.71083514    -0.43970
C1585       C  0.81456873  0.99237923  0.82841878    -0.00380
C1586       C  0.82967710  0.51729226  0.79106525    -0.12260
C1587       C  0.83414400  0.55532264  0.78987965     0.01860
C1588       C  0.82401125  0.56955630  0.82690891    -0.00470
C1589       C  0.80943832  0.54514508  0.86446288    -0.12190
C1590       C  0.80414758  0.00678060  0.86542194     0.01740
H1591       H  0.83770356  0.50693380  0.76221806     0.14720
H1592       H  0.80158561  0.55602821  0.89301312     0.14720
C1593       C  0.78823909  0.98342194  0.90507551     0.36370
C1594       C  0.84789333  0.57844607  0.74959558     0.36280
N1595       N  0.77528007  0.96487132  0.93691020    -0.43970
N1596       N  0.85880917  0.59661999  0.71703394    -0.43970
C1597       C  0.81955305  0.78807907  0.83370256    -0.00380
C1598       C  0.82310604  0.77387846  0.79218569    -0.12260
C1599       C  0.82570279  0.73950218  0.78992998     0.01860
C1600       C  0.82545600  0.71911103  0.82984663    -0.00470
C1601       C  0.82266935  0.73352933  0.87151660    -0.12190
C1602       C  0.81933478  0.76760089  0.87375689     0.01740
H1603       H  0.82324439  0.78937823  0.76120359     0.14720
H1604       H  0.82256508  0.71775833  0.90222859     0.14720
C1605       C  0.81686966  0.78141272  0.91753263     0.36370
C1606       C  0.82831125  0.72561489  0.74628526     0.36280
N1607       N  0.81486826  0.79246096  0.95262498    -0.43970
N1608       N  0.83062854  0.71476237  0.71122769    -0.43970
C1609       C  0.57150164  0.56649608  0.50011260    -0.00380
C1610       C  0.59032884  0.58660445  0.54118900    -0.12260
C1611       C  0.62608455  0.62281185  0.54199405     0.01860
C1612       C  0.64339239  0.63918617  0.50105386    -0.00470
C1613       C  0.62408961  0.61943442  0.45989892    -0.12190
C1614       C  0.58833709  0.58321397  0.45914230     0.01740
H1615       H  0.57687820  0.57399256  0.57259260     0.14720
H1616       H  0.63711013  0.63223681  0.42833778     0.14720
C1617       C  0.56884943  0.56447751  0.41597975     0.36370
C1618       C  0.64330221  0.64355171  0.58485282     0.36280
N1619       N  0.55319037  0.54988239  0.38121046    -0.43970
N1620       N  0.65694630  0.66034236  0.61912643    -0.43970
C1621       C  0.92244326  0.91838347  0.50352300    -0.00380
C1622       C  0.89516849  0.90914415  0.46583365    -0.12260
C1623       C  0.85858515  0.87377003  0.46343299     0.01860
C1624       C  0.84882386  0.84665298  0.49952776    -0.00470
C1625       C  0.87622224  0.85628654  0.53743699    -0.12190
C1626       C  0.91261138  0.89183451  0.53985289     0.01740
H1627       H  0.90278460  0.92961826  0.43787906     0.14720
H1628       H  0.86907373  0.83620129  0.56573605     0.14720
C1629       C  0.93869760  0.90059452  0.58047048     0.36370
C1630       C  0.83248526  0.86606982  0.42298984     0.36280
N1631       N  0.95920170  0.90718548  0.61332898    -0.43970
N1632       N  0.81173194  0.86017199  0.39049003    -0.43970
C1633       C  0.92400150  0.99338008  0.50977743    -0.00380
C1634       C  0.90882412  0.50258688  0.46989381    -0.12260
C1635       C  0.87249644  0.50168754  0.46797689     0.01860
C1636       C  0.85073670  0.99191581  0.50680945    -0.00470
C1637       C  0.86625379  0.98348829  0.54707327    -0.12190
C1638       C  0.90234078  0.98361665  0.54871029     0.01740
H1639       H  0.92526397  0.50993175  0.43985275     0.14720
H1640       H  0.84978147  0.97611376  0.57708316     0.14720
C1641       C  0.91628124  0.97374552  0.59073256     0.36370
C1642       C  0.85886519  0.51179112  0.42585862     0.36280
N1643       N  0.92676711  0.96581543  0.62494819    -0.43970
N1644       N  0.84852281  0.51979733  0.39161534    -0.43970
C1645       C  0.64637304  0.99709152  0.49687499    -0.00380
C1646       C  0.62044198  0.98482307  0.45742430    -0.12260
C1647       C  0.58346386  0.98277885  0.45622126     0.01860
C1648       C  0.57126331  0.99223593  0.49542361    -0.00470
C1649       C  0.59673336  0.50378677  0.53502781    -0.12190
C1650       C  0.63404943  0.50680631  0.53607300     0.01740
H1651       H  0.62934213  0.97740938  0.42703118     0.14720
H1652       H  0.58741047  0.51082050  0.56535418     0.14720
C1653       C  0.65839320  0.51926212  0.57831415     0.36370
C1654       C  0.55959585  0.97227149  0.41380067     0.36280
N1655       N  0.67779152  0.52945097  0.61222484    -0.43970
N1656       N  0.54149935  0.96414769  0.37903995    -0.43970
C1657       C  0.00346561  0.64246737  0.50649635    -0.00380
C1658       C  0.50045125  0.62245986  0.54745602    -0.12260
C1659       C  0.49885529  0.58559700  0.54847133     0.01860
C1660       C  0.99923962  0.56770103  0.50785056    -0.00470
C1661       C  0.00191041  0.58738505  0.46698007    -0.12190
C1662       C  0.00427458  0.62446940  0.46588656     0.01740
H1663       H  0.49991546  0.63591439  0.57884102     0.14720
H1664       H  0.00196170  0.57351067  0.43568946     0.14720
C1665       C  0.00585410  0.64236392  0.42224667     0.36370
C1666       C  0.49817425  0.56741683  0.59163829     0.36280
N1667       N  0.00713924  0.65655914  0.38718199    -0.43970
N1668       N  0.49807463  0.55332724  0.62650037    -0.43970
C1669       C  0.99188664  0.84296142  0.49503929    -0.00380
C1670       C  0.97875902  0.85536293  0.45599573    -0.12260
C1671       C  0.97924026  0.89167313  0.45587704     0.01860
C1672       C  0.99555190  0.91720647  0.49437444    -0.00470
C1673       C  0.00989065  0.90524256  0.53267142    -0.12190
C1674       C  0.00659712  0.86782673  0.53402382     0.01740
H1675       H  0.96708497  0.83616040  0.42610308     0.14720
H1676       H  0.02217908  0.92465180  0.56237695     0.14720
C1677       C  0.51754387  0.85542691  0.57631695     0.36370
C1678       C  0.96265749  0.90182199  0.41610923     0.36280
N1679       N  0.52538242  0.84560201  0.61085767    -0.43970
N1680       N  0.94913630  0.90962574  0.38412250    -0.43970
C1681       C  0.67688204  0.69894737  0.16444318    -0.00380
C1682       C  0.66946943  0.71172565  0.20465745    -0.12260
C1683       C  0.66704193  0.74627890  0.20605721     0.01860
C1684       C  0.67071722  0.76804306  0.16633705    -0.00470
C1685       C  0.67813190  0.75550456  0.12609392    -0.12190
C1686       C  0.68181176  0.72157180  0.12491745     0.01740
H1687       H  0.66646118  0.69514653  0.23549977     0.14720
H1688       H  0.68135682  0.77255426  0.09562074     0.14720
C1689       C  0.69003786  0.71054798  0.08263026     0.36370
C1690       C  0.66258477  0.75972020  0.24902710     0.36280
N1691       N  0.69692237  0.70196376  0.04875536    -0.43970
N1692       N  0.65949432  0.77044735  0.28377104    -0.43970
C1693       C  0.67901452  0.99325130  0.17188655    -0.00380
C1694       C  0.66957795  0.97233353  0.13055771    -0.12260
C1695       C  0.66467859  0.93412032  0.12890884     0.01860
C1696       C  0.66986936  0.91654323  0.16902919    -0.00470
C1697       C  0.67972680  0.93755833  0.21027465    -0.12190
C1698       C  0.68397808  0.97548527  0.21208015     0.01740
H1699       H  0.66542974  0.98565158  0.09956363     0.14720
H1700       H  0.68449558  0.92436415  0.24103844     0.14720
C1701       C  0.69507338  0.99621867  0.25522938     0.36370
C1702       C  0.65540886  0.91392822  0.08561885     0.36280
N1703       N  0.70409740  0.51288759  0.28979491    -0.43970
N1704       N  0.64816293  0.89785035  0.05086735    -0.43970
C1705       C  0.52929923  0.68821779  0.17000227    -0.00380
C1706       C  0.54083926  0.71415393  0.20732769    -0.12260
C1707       C  0.57363225  0.75271334  0.20640808     0.01860
C1708       C  0.59548483  0.76560266  0.16760269    -0.00470
C1709       C  0.58402716  0.73924371  0.13052431    -0.12190
C1710       C  0.55121548  0.70080668  0.13144016     0.01740
H1711       H  0.52366418  0.70452214  0.23685644     0.14720
H1712       H  0.60114890  0.74865630  0.10098372     0.14720
C1713       C  0.54126519  0.67430832  0.09312205     0.36370
C1714       C  0.58468194  0.77799450  0.24604858     0.36280
N1715       N  0.53336895  0.65288852  0.06263109    -0.43970
N1716       N  0.59334605  0.79801434  0.27803393    -0.43970
C1717       C  0.74361702  0.91621996  0.17217052    -0.00380
C1718       C  0.75546298  0.93835420  0.13279663    -0.12260
C1719       C  0.79217002  0.97339260  0.13247761     0.01860
C1720       C  0.81820342  0.98671498  0.17238133    -0.00470
C1721       C  0.80604281  0.96446271  0.21199289    -0.12190
C1722       C  0.76883746  0.92968355  0.21227848     0.01740
H1723       H  0.73608776  0.92781384  0.10193473     0.14720
H1724       H  0.82532883  0.97456412  0.24295742     0.14720
C1725       C  0.75682773  0.90860262  0.25413368     0.36370
C1726       C  0.80248991  0.49408133  0.09012935     0.36280
N1727       N  0.74712993  0.89168919  0.28766933    -0.43970
N1728       N  0.81048271  0.51058014  0.05613497    -0.43970
C1729       C  0.52211656  0.84319376  0.16297446    -0.00380
C1730       C  0.53051336  0.82739903  0.12586767    -0.12260
C1731       C  0.56607578  0.82660656  0.12585741     0.01860
C1732       C  0.59389225  0.84107382  0.16389713    -0.00470
C1733       C  0.58562559  0.85673903  0.20088993    -0.12190
C1734       C  0.55054909  0.85820391  0.20082251     0.01740
H1735       H  0.00952937  0.81614765  0.09632774     0.14720
H1736       H  0.60680930  0.86782143  0.23027146     0.14720
C1737       C  0.54486178  0.87494930  0.24061686     0.36370
C1738       C  0.57386709  0.81209626  0.08576030     0.36280
N1739       N  0.54062475  0.88856134  0.27256289    -0.43970
N1740       N  0.57996451  0.80053009  0.05344176    -0.43970
C1741       C  0.74341291  0.84231434  0.16549753    -0.00380
C1742       C  0.76036963  0.83474714  0.20506582    -0.12260
C1743       C  0.79573102  0.83400480  0.20464931     0.01860
C1744       C  0.81408287  0.83990674  0.16371132    -0.00470
C1745       C  0.79654915  0.84644025  0.12382029    -0.12190
C1746       C  0.76160841  0.84810071  0.12452957     0.01740
H1747       H  0.74584963  0.82936785  0.23632225     0.14720
H1748       H  0.81062402  0.85107522  0.09232217     0.14720
C1749       C  0.74462338  0.85524246  0.08286966     0.36370
C1750       C  0.81197358  0.82614062  0.24643790     0.36280
N1751       N  0.73096351  0.86099793  0.04952529    -0.43970
N1752       N  0.82482665  0.81993463  0.28011330    -0.43970
loop_ 
_geom_bond_atom_site_label_1 
_geom_bond_atom_site_label_2 
_geom_bond_distance 
_geom_bond_site_symmetry_2 
_ccdc_geom_bond_type 
O1           Ni7   1.921       .  S
O1           C22   1.269       .  A
O2          Ni25   1.904       .  S
O2           C11   1.265       .  A
O3           Ni7   1.906       .  S
O3          Ni25   1.912       .  S
O3          Ni19   1.917       .  S
O3           H26   0.965       .  S
C4           O21   1.275       .  A
C4           O13   1.274       .  A
C4           C58   1.466       .  S
O5          Ni24   1.919       .  S
O5           C11   1.267       .  A
O6          Ni24   1.907       .  S
O6            C8   1.266       .  A
Ni7          O10   1.921       .  S
Ni7          O12   1.914       .  S
C8           O18   1.268       .  A
C8           C43   1.464       .  S
O9          Ni25   1.923       .  S
O9           C15   1.275       .  A
O10          C15   1.274       .  A
C11         C119   1.460       .  S
O12          C14   1.269       .  A
O13         Ni24   1.923       .  S
C14          O20   1.269       .  A
C14          C86   1.469       .  S
C15         C100   1.464       .  S
H16          O17   0.967       .  S
O17         Ni25   1.916       .  S
O17         Ni19   1.918       .  S
O17         Ni24   1.910       .  S
O18         Ni19   1.927       .  S
Ni19         O23   1.909       .  S
Ni19         O21   1.924       .  S
O20         Ni25   1.929       .  S
C22          O23   1.266       .  A
C22          C71   1.465       .  S
C27         C427   1.486       .  S
C27          C28   1.405       .  A
C27          C32   1.405       .  A
C28         C403   1.484       .  S
C28          C29   1.412       .  A
C29         C382   1.488       .  S
C29          C30   1.420       .  A
C30         C418   1.496       .  S
C30          C31   1.421       .  A
C31         C394   1.489       .  S
C31          C32   1.415       .  A
C32         C370   1.486       .  S
O33         Ni41   1.924       .  S
O33          C43   1.283       .  A
O34         Ni41   1.927       .  S
O34          C44   1.282       .  A
O35         Ni41   1.915       .  S
O35          C45   1.280       .  A
O36         Ni41   1.902       .  S
O36          C46   1.279       .  A
O37         Ni42   1.920       .  S
O37          C46   1.282       .  A
O38         Ni42   1.922       .  S
O38          C45   1.282       .  A
O39         Ni42   1.902       .  S
O39          C44   1.279       .  A
O40         Ni42   1.912       .  S
O40          C43   1.278       .  A
Ni41        Ni42   2.389       .  S
C44         C133   1.464       .  S
C45         C817   1.478   1_545  S
C46         C367   1.478       .  S
O47         Ni55   1.920       .  S
O47          C57   1.281       .  A
O48         Ni55   1.915       .  S
O48          C58   1.281       .  A
O49         Ni55   1.911       .  S
O49          C59   1.280       .  A
O50         Ni55   1.907       .  S
O50          C60   1.279       .  A
O51         Ni56   1.921       .  S
O51          C60   1.282       .  A
O52         Ni56   1.929       .  S
O52          C59   1.285       .  A
O53         Ni56   1.928       .  S
O53          C58   1.281       .  A
O54         Ni56   1.924       .  S
O54          C57   1.282       .  A
Ni55        Ni56   2.388       .  S
C57         C136   1.468       .  S
C59        C1291   1.496       .  S
C60         C430   1.470       .  S
O61         Ni69   1.923       .  S
O61          C71   1.282       .  A
O62         Ni69   1.920       .  S
O62          C72   1.282       .  A
O63         Ni69   1.898       .  S
O63          C73   1.277       .  A
O64         Ni69   1.903       .  S
O64          C74   1.277       .  A
O65         Ni70   1.921       .  S
O65          C74   1.282       .  A
O66         Ni70   1.930       .  S
O66          C73   1.285       .  A
O67         Ni70   1.918       .  S
O67          C72   1.279       .  A
O68         Ni70   1.909       .  S
O68          C71   1.279       .  A
Ni69        Ni70   2.391       .  S
C72         C137   1.463       .  S
C73         C844   1.482   1_545  S
C74        C1267   1.466       .  S
O75        Ni959   1.925   1_455  S
O75          C85   1.282       .  A
O76         Ni83   1.927       .  S
O76          C86   1.282       .  A
O77         Ni83   1.923       .  S
O77          C87   1.283       .  A
O78         Ni83   1.910       .  S
O78          C88   1.279       .  A
O79         Ni84   1.921       .  S
O79         C964   1.282   1_455  A
O80         Ni84   1.912       .  S
O80         C963   1.281       .  A
O81        Ni960   1.920       .  S
O81          C86   1.281       .  A
O82         Ni84   1.924       .  S
O82          C85   1.281       .  A
Ni83        O951   1.925       .  S
Ni83       Ni960   2.390       .  S
Ni84        O957   1.920   1_455  S
Ni84       Ni959   2.390   1_455  S
C85         C156   1.471       .  S
C87         O956   1.281       .  A
C87         C343   1.484       .  S
C88         O955   1.282       .  A
C88         C355   1.471       .  S
O89        Ni535   1.920       .  S
O89          C99   1.282       .  A
O90         Ni97   1.925       .  S
O90         C100   1.281       .  A
O91         Ni97   1.911       .  S
O91         C539   1.280   1_545  A
O92         Ni97   1.923       .  S
O92         C540   1.282   1_545  A
O93         Ni98   1.919       .  S
O93         C102   1.281       .  A
O94         Ni98   1.927       .  S
O94         C101   1.284       .  A
O95        Ni536   1.915   1_545  S
O95         C100   1.280       .  A
O96         Ni98   1.922       .  S
O96          C99   1.280       .  A
Ni97        O527   1.920   1_545  S
Ni97       Ni536   2.389   1_545  S
Ni98        O533   1.915       .  S
Ni98       Ni535   2.389       .  S
C99         C152   1.466       .  S
C101        O529   1.280       .  A
C101        C331   1.491       .  S
C102        O530   1.282       .  A
C102        C322   1.478       .  S
C103        C334   1.496       .  S
C103        C980   1.413   1_455  A
C103        C546   1.413       .  A
C104        C358   1.488       .  S
C104        C105   1.418       .  A
C104        C979   1.413       .  A
C105        C307   1.483       .  S
C105        C106   1.415       .  A
C106        C319   1.492       .  S
C106        C545   1.410       .  A
C107        C346   1.489       .  S
C107        C544   1.410   1_545  A
C107        C984   1.411       .  A
C108        C295   1.480       .  S
C108        C541   1.413   1_545  A
C108        C983   1.411   1_455  A
O109       Ni117   1.909       .  S
O109        C119   1.281       .  A
O110       Ni117   1.914       .  S
O110        C120   1.280       .  A
O111       Ni117   1.910       .  S
O111        C121   1.280       .  A
O112       Ni117   1.909       .  S
O112        C122   1.280       .  A
O113       Ni118   1.910       .  S
O113        C122   1.280       .  A
O114       Ni118   1.907       .  S
O114        C121   1.281       .  A
O115       Ni118   1.907       .  S
O115        C120   1.280       .  A
O116       Ni118   1.913       .  S
O116        C119   1.279       .  A
Ni117      Ni118   2.392       .  S
C120        C170   1.459       .  S
C121        C310   1.480       .  S
C122        C298   1.467       .  S
O123       Ni129   1.916   1_556  S
O123        C144   1.268       .  A
O124       Ni147   1.914       .  S
O124        C133   1.267       .  A
O125       Ni129   1.901   1_556  S
O125       Ni141   1.917       .  S
O125      Ni1461   1.910   1_556  S
O125        H586   0.967       .  S
C126        O143   1.277       .  A
C126        O135   1.276       .  A
C126        C220   1.464       .  S
O127       Ni146   1.915   1_554  S
O127        C133   1.268       .  A
O128       Ni146   1.914       .  S
O128        C130   1.268       .  A
Ni129       O134   1.915       .  S
Ni129       O570   1.921       .  S
C130        O140   1.268       .  A
C130        C205   1.468       .  S
O131      Ni1023   1.925       .  S
O131        C137   1.278       .  A
O132       Ni567   1.921   1_545  S
O132        C137   1.276       .  A
O134        C136   1.268       .  A
O135       Ni584   1.922       .  S
C136        O142   1.268       .  A
H138        O139   0.967       .  S
O139       Ni585   1.917       .  S
O139      Ni1017   1.911   1_454  S
O139       Ni584   1.901   1_554  S
O140      Ni1455   1.927   1_445  S
Ni141       O145   1.911       .  S
Ni141      O1454   1.927       .  S
Ni141      O1019   1.925       .  S
Ni141      O1015   1.911   1_556  S
O142      Ni1461   1.926       .  S
O143      Ni1017   1.925   1_455  S
C144        O145   1.266       .  A
C144        C186   1.462       .  S
Ni146       O573   1.922   1_545  S
Ni146       O577   1.901   1_546  S
Ni147      O1007   1.925   1_455  S
Ni147      O1456   1.926   1_445  S
Ni147      O1439   1.910   1_444  S
Ni147       O577   1.917   1_545  S
H148        O563   0.967   1_545  S
O149       Ni155   1.918       .  S
O149        C170   1.266       .  A
O150       Ni173   1.912       .  S
O150        C159   1.267       .  A
O151       Ni155   1.909       .  S
O151       Ni173   1.919       .  S
O151       Ni167   1.917       .  S
O151        H174   0.967       .  S
C152        O169   1.276       .  A
C152        O161   1.276       .  A
O153       Ni172   1.921       .  S
O153        C159   1.269       .  A
O154       Ni172   1.918       .  S
O154        C156   1.268       .  A
Ni155       O158   1.921       .  S
Ni155       O160   1.906       .  S
C156        O166   1.266       .  A
O157       Ni173   1.925       .  S
O157        C163   1.275       .  A
O158        C163   1.275       .  A
C159        C219   1.467       .  S
O160        C162   1.266       .  A
O161       Ni172   1.925       .  S
C162        O168   1.268       .  A
C162        C185   1.461       .  S
C163        C206   1.465       .  S
H164        O165   0.965       .  S
O165       Ni173   1.916       .  S
O165       Ni167   1.911       .  S
O165       Ni172   1.906       .  S
O166       Ni167   1.923       .  S
Ni167       O171   1.903       .  S
Ni167       O169   1.925       .  S
O168       Ni173   1.925       .  S
C170        O171   1.264       .  A
O175       Ni183   1.907       .  S
O175        C185   1.277       .  A
O176       Ni183   1.900       .  S
O176        C186   1.278       .  A
O177       Ni183   1.922       .  S
O177        C187   1.283       .  A
O178       Ni183   1.921       .  S
O178        C188   1.283       .  A
O179       Ni184   1.898       .  S
O179        C188   1.278       .  A
O180       Ni184   1.910       .  S
O180        C187   1.280       .  A
O181       Ni184   1.926       .  S
O181        C186   1.282       .  A
O182       Ni184   1.925       .  S
O182        C185   1.283       .  A
Ni183      Ni184   2.389       .  S
C187        C271   1.490       .  S
C188        C283   1.472       .  S
C189        C238   1.492       .  S
C189        C190   1.405       .  A
C189        C194   1.409       .  A
C190        C286   1.481       .  S
C190        C191   1.411       .  A
C191        C259   1.485       .  S
C191        C192   1.415       .  A
C192        C223   1.496       .  S
C192        C193   1.421       .  A
C193        C274   1.489       .  S
C193        C194   1.419       .  A
C194        C250   1.487       .  S
O195       Ni203   1.921       .  S
O195        C205   1.281       .  A
O196       Ni203   1.913       .  S
O196        C206   1.280       .  A
O197       Ni203   1.914       .  S
O197        C207   1.281       .  A
O198       Ni203   1.916       .  S
O198        C208   1.281       .  A
O199       Ni204   1.930       .  S
O199        C208   1.283       .  A
O200       Ni204   1.921       .  S
O200        C207   1.282       .  A
O201       Ni204   1.929       .  S
O201        C206   1.282       .  A
O202       Ni204   1.923       .  S
O202        C205   1.282       .  A
Ni203      Ni204   2.389       .  S
C207        C235   1.481       .  S
C208       C1102   1.481   1_455  S
O209       Ni217   1.910       .  S
O209        C219   1.280       .  A
O210       Ni217   1.921       .  S
O210        C220   1.280       .  A
O211       Ni217   1.926       .  S
O211        C221   1.283       .  A
O212       Ni217   1.917       .  S
O212        C222   1.282       .  A
O213       Ni218   1.911       .  S
O213        C222   1.279       .  A
O214       Ni218   1.905       .  S
O214        C221   1.278       .  A
O215       Ni218   1.918       .  S
O215        C220   1.282       .  A
O216       Ni218   1.924       .  S
O216        C219   1.282       .  A
Ni217      Ni218   2.392       .  S
C221        C685   1.471       .  S
C222       C1138   1.476   1_455  S
C223        C224   1.403       .  A
C223        C228   1.413       .  A
C224        C225   1.400       .  A
C224        H229   1.083       .  S
C225        C226   1.412       .  A
C225       C1108   1.445       .  S
C226       C1084   1.481       .  S
C226        C227   1.404       .  A
C227        C228   1.406       .  A
C227        H230   1.084       .  S
C228        C231   1.443       .  S
C231        N233   1.157       .  T
C232       C1101   1.445       .  S
C232        N234   1.157   1_655  T
C235        C236   1.405       .  A
C235        C240   1.413       .  A
C236        C237   1.400       .  A
C236        H241   1.085       .  S
C237        C238   1.409       .  A
C237        C244   1.442       .  S
C238        C239   1.403       .  A
C239        C240   1.400       .  A
C239        H242   1.085       .  S
C240        C243   1.443       .  S
C243        N245   1.157       .  T
C244        N246   1.157       .  T
C247        C659   1.471   1_545  S
C247        C248   1.402       .  A
C247        C252   1.411       .  A
C248        C249   1.402       .  A
C248        H691   1.085   1_545  S
C249        C250   1.411       .  A
C249        C256   1.442       .  S
C250        C251   1.401       .  A
C251        C252   1.395       .  A
C251        H254   1.085       .  S
C252        C255   1.444       .  S
H253        C686   1.085       .  S
C255        N257   1.157       .  T
C256        N258   1.157       .  T
C259        C260   1.400       .  A
C259        C264   1.408       .  A
C260        C261   1.397       .  A
C260        H265   1.084       .  S
C261        C262   1.413       .  A
C261        C268   1.445       .  S
C262       C1098   1.476       .  S
C262        C263   1.405       .  A
C263        C264   1.400       .  A
C263        H266   1.085       .  S
C264        C267   1.443       .  S
C267        N269   1.157       .  T
C268        N270   1.157       .  T
C271        C276   1.417       .  A
C271        C710   1.409       .  A
C272        C273   1.399       .  A
C272        C709   1.409   1_545  A
C272        H277   1.084       .  S
C273        C274   1.408       .  A
C273        C280   1.443       .  S
C274        C275   1.402       .  A
C275        C714   1.399       .  A
C275        H278   1.085       .  S
C276        C713   1.399       .  A
C276        C279   1.444       .  S
C279        N281   1.157       .  T
C280        N282   1.157       .  T
C283        C284   1.405       .  A
C283        C288   1.411       .  A
C284        C285   1.394       .  A
C284        H289   1.085       .  S
C285        C286   1.406       .  A
C285        C292   1.443       .  S
C286        C287   1.402       .  A
C287        C288   1.398       .  A
C287        H290   1.084       .  S
C288        C291   1.444       .  S
C291        N293   1.157       .  T
C292        N294   1.157       .  T
C295        C296   1.401       .  A
C295        C300   1.408       .  A
C296        C297   1.396       .  A
C296        H301   1.085       .  S
C297        C298   1.411       .  A
C297        C304   1.444       .  S
C298        C299   1.402       .  A
C299        C300   1.396       .  A
C299        H302   1.085       .  S
C300        C303   1.443       .  S
C303        N305   1.157       .  T
C304        N306   1.157       .  T
C307        C308   1.400       .  A
C307        C312   1.408       .  A
C308        C309   1.396       .  A
C308        H313   1.085       .  S
C309        C310   1.416       .  A
C309        C316   1.444       .  S
C310        C311   1.406       .  A
C311        C312   1.395       .  A
C311        H314   1.085       .  S
C312        C315   1.443       .  S
C315        N317   1.157       .  T
C316        N318   1.157       .  T
C319        C324   1.413       .  A
C319        C758   1.400       .  A
C320        C321   1.398       .  A
C320        C757   1.400   1_545  A
C320        H325   1.085       .  S
C321        C760   1.412   1_545  A
C321        C328   1.442       .  S
C322        C323   1.403       .  A
C322        C759   1.412       .  A
C323        C324   1.403       .  A
C323        H326   1.085       .  S
C324        C327   1.441       .  S
C327        N329   1.157       .  T
C328        N330   1.157       .  T
C331        C332   1.406       .  A
C331        C774   1.419       .  A
C332        C333   1.403       .  A
C332        H337   1.085       .  S
C333        C334   1.412       .  A
C333        C340   1.441       .  S
C334        C773   1.401       .  A
C335        C336   1.399       .  A
C335        C772   1.401   1_545  A
C335        H338   1.085       .  S
C336        C769   1.419   1_545  A
C336        C339   1.445       .  S
C339        N341   1.157       .  T
C340        N342   1.157       .  T
C343        C348   1.417       .  A
C343       C1220   1.406       .  A
C344        C345   1.403   1_455  A
C344       C1219   1.406       .  A
C344        H349   1.085   1_455  S
C345       C1222   1.409       .  A
C345        C352   1.442       .  S
C346        C347   1.399       .  A
C346       C1221   1.409       .  A
C347        C348   1.397       .  A
C347        H350   1.084       .  S
C348        C351   1.444       .  S
C351        N353   1.157       .  T
C352        N354   1.157       .  T
C355        C356   1.402       .  A
C355        C360   1.411       .  A
C356        C357   1.402       .  A
C356        H361   1.085       .  S
C357        C358   1.413       .  A
C357        C364   1.443       .  S
C358        C359   1.399       .  A
C359        C360   1.394       .  A
C359        H362   1.085       .  S
C360       C1239   1.443       .  S
C363       C1236   1.443       .  S
C363        N365   1.157       .  T
C364        N366   1.157       .  T
C367        C368   1.406       .  A
C367        C372   1.413       .  A
C368        C369   1.395       .  A
C368        H373   1.085       .  S
C369        C370   1.406       .  A
C369        C376   1.443       .  S
C370        C371   1.402       .  A
C371        C372   1.399       .  A
C371        H374   1.084       .  S
C372        C375   1.443       .  S
C375        N377   1.157       .  T
C376        N378   1.157       .  T
C379        C483   1.478       .  S
C379        C380   1.405       .  A
C379        C384   1.412       .  A
C380        C381   1.401       .  A
C380        H385   1.085       .  S
C381        C382   1.409       .  A
C381        C388   1.443       .  S
C382        C383   1.403       .  A
C383        C384   1.400       .  A
C383        H386   1.085       .  S
C384        C387   1.444       .  S
C387        N827   1.157       .  T
C388        N390   1.157       .  T
N389        C825   1.157   1_545  T
C391        C950   1.466   1_455  S
C391        C392   1.401       .  A
C391        C396   1.407       .  A
C392        C393   1.399       .  A
C392        H397   1.085       .  S
C393        C394   1.412       .  A
C393        C400   1.443       .  S
C394        C395   1.405       .  A
C395        C396   1.397       .  A
C395        H398   1.084       .  S
C396        C399   1.444       .  S
C399        N401   1.157       .  T
C400        N402   1.157       .  T
C403        C404   1.396       .  A
C403        C408   1.409       .  A
C404        C405   1.395       .  A
C404        H409   1.084       .  S
C405        C406   1.419       .  A
C405        C850   1.445       .  S
C406        C511   1.482       .  S
C406        C407   1.405       .  A
C407        C408   1.401       .  A
C407        H410   1.084       .  S
C408        C411   1.444       .  S
C411        N413   1.157       .  T
C412        C843   1.445       .  S
C412        N414   1.157   1_565  T
C415        C935   1.496   1_455  S
C415        C416   1.409       .  A
C415        C420   1.420       .  A
C416        C417   1.404       .  A
C416       H1297   1.084       .  S
C417        C418   1.412       .  A
C417        C424   1.443       .  S
C418        C419   1.400       .  A
C419        C420   1.399       .  A
C419        H422   1.084       .  S
C420        C423   1.444       .  S
H421       C1292   1.084       .  S
C423        N425   1.157       .  T
C424        N426   1.157       .  T
C427        C428   1.400       .  A
C427        C432   1.410       .  A
C428        C429   1.396       .  A
C428        H433   1.084       .  S
C429        C430   1.412       .  A
C429        C436   1.444       .  S
C430        C431   1.402       .  A
C431        C432   1.399       .  A
C431        H434   1.085       .  S
C432        C435   1.443       .  S
C435        N437   1.157       .  T
C436        N438   1.157       .  T
O439       Ni445   1.921       .  S
O439        C460   1.269       .  A
O440       Ni463   1.904       .  S
O440        C449   1.265       .  A
O441       Ni445   1.906       .  S
O441       Ni463   1.912       .  S
O441       Ni457   1.917       .  S
O441        H464   0.965       .  S
C442        O459   1.275       .  A
C442        O451   1.274       .  A
C442        C496   1.466       .  S
O443       Ni462   1.919       .  S
O443        C449   1.267       .  A
O444       Ni462   1.907       .  S
O444        C446   1.266       .  A
Ni445       O448   1.921       .  S
Ni445       O450   1.914       .  S
C446        O456   1.268       .  A
C446        C481   1.464       .  S
O447       Ni463   1.923       .  S
O447        C453   1.275       .  A
O448        C453   1.274       .  A
C449        C557   1.460       .  S
O450        C452   1.269       .  A
O451       Ni462   1.923       .  S
C452        O458   1.269       .  A
C452        C524   1.469       .  S
C453        C538   1.464       .  S
H454        O455   0.967       .  S
O455       Ni463   1.916       .  S
O455       Ni457   1.918       .  S
O455       Ni462   1.910       .  S
O456       Ni457   1.927       .  S
Ni457       O461   1.909       .  S
Ni457       O459   1.924       .  S
O458       Ni463   1.929       .  S
C460        O461   1.266       .  A
C460        C509   1.465       .  S
C465        C865   1.486       .  S
C465        C466   1.405       .  A
C465        C470   1.405       .  A
C466        C841   1.484       .  S
C466        C467   1.412       .  A
C467        C820   1.488       .  S
C467        C468   1.420       .  A
C468        C856   1.496       .  S
C468        C469   1.421       .  A
C469        C832   1.489       .  S
C469        C470   1.415       .  A
C470        C808   1.486       .  S
O471       Ni479   1.924       .  S
O471        C481   1.283       .  A
O472       Ni479   1.927       .  S
O472        C482   1.282       .  A
O473       Ni479   1.915       .  S
O473        C483   1.280       .  A
O474       Ni479   1.902       .  S
O474        C484   1.279       .  A
O475       Ni480   1.920       .  S
O475        C484   1.282       .  A
O476       Ni480   1.922       .  S
O476        C483   1.282       .  A
O477       Ni480   1.902       .  S
O477        C482   1.279       .  A
O478       Ni480   1.912       .  S
O478        C481   1.278       .  A
Ni479      Ni480   2.389       .  S
C482        C571   1.464       .  S
C484        C805   1.478       .  S
O485       Ni493   1.920       .  S
O485        C495   1.281       .  A
O486       Ni493   1.915       .  S
O486        C496   1.281       .  A
O487       Ni493   1.911       .  S
O487        C497   1.280       .  A
O488       Ni493   1.907       .  S
O488        C498   1.279       .  A
O489       Ni494   1.921       .  S
O489        C498   1.282       .  A
O490       Ni494   1.929       .  S
O490        C497   1.285       .  A
O491       Ni494   1.928       .  S
O491        C496   1.281       .  A
O492       Ni494   1.924       .  S
O492        C495   1.282       .  A
Ni493      Ni494   2.388       .  S
C495        C574   1.468       .  S
C497       C1729   1.496       .  S
C498        C868   1.470       .  S
O499       Ni507   1.923       .  S
O499        C509   1.282       .  A
O500       Ni507   1.920       .  S
O500        C510   1.282       .  A
O501       Ni507   1.898       .  S
O501        C511   1.277       .  A
O502       Ni507   1.903       .  S
O502        C512   1.277       .  A
O503       Ni508   1.921       .  S
O503        C512   1.282       .  A
O504       Ni508   1.930       .  S
O504        C511   1.285       .  A
O505       Ni508   1.918       .  S
O505        C510   1.279       .  A
O506       Ni508   1.909       .  S
O506        C509   1.279       .  A
Ni507      Ni508   2.391       .  S
C510        C575   1.463       .  S
C512       C1705   1.466       .  S
O513      Ni1397   1.925   1_455  S
O513        C523   1.282       .  A
O514       Ni521   1.927       .  S
O514        C524   1.282       .  A
O515       Ni521   1.923       .  S
O515        C525   1.283       .  A
O516       Ni521   1.910       .  S
O516        C526   1.279       .  A
O517       Ni522   1.921       .  S
O517       C1402   1.282   1_455  A
O518       Ni522   1.912       .  S
O518       C1401   1.281       .  A
O519      Ni1398   1.920       .  S
O519        C524   1.281       .  A
O520       Ni522   1.924       .  S
O520        C523   1.281       .  A
Ni521      O1389   1.925       .  S
Ni521     Ni1398   2.390       .  S
Ni522      O1395   1.920   1_455  S
Ni522     Ni1397   2.390   1_455  S
C523        C594   1.471       .  S
C525       O1394   1.281       .  A
C525        C781   1.484       .  S
C526       O1393   1.282       .  A
C526        C793   1.471       .  S
O527        C537   1.282       .  A
O528       Ni535   1.925       .  S
O528        C538   1.281       .  A
O529       Ni535   1.911       .  S
O530       Ni535   1.923       .  S
O531       Ni536   1.919       .  S
O531        C540   1.281       .  A
O532       Ni536   1.927       .  S
O532        C539   1.284       .  A
O533        C538   1.280       .  A
O534       Ni536   1.922       .  S
O534        C537   1.280       .  A
C537        C590   1.466       .  S
C539        C769   1.491       .  S
C540        C760   1.478       .  S
C541        C772   1.496       .  S
C541       C1418   1.413   1_455  A
C542        C796   1.488       .  S
C542       C1417   1.413       .  A
C542        C543   1.418       .  A
C543        C745   1.483       .  S
C543        C544   1.415       .  A
C544        C757   1.492       .  S
C545        C784   1.489       .  S
C545       C1422   1.411       .  A
C546        C733   1.480       .  S
C546       C1421   1.411   1_455  A
O547       Ni555   1.909       .  S
O547        C557   1.281       .  A
O548       Ni555   1.914       .  S
O548        C558   1.280       .  A
O549       Ni555   1.910       .  S
O549        C559   1.280       .  A
O550       Ni555   1.909       .  S
O550        C560   1.280       .  A
O551       Ni556   1.910       .  S
O551        C560   1.280       .  A
O552       Ni556   1.907       .  S
O552        C559   1.281       .  A
O553       Ni556   1.907       .  S
O553        C558   1.280       .  A
O554       Ni556   1.913       .  S
O554        C557   1.279       .  A
Ni555      Ni556   2.392       .  S
C558        C608   1.459       .  S
C559        C748   1.480       .  S
C560        C736   1.467       .  S
O561       Ni567   1.916   1_556  S
O561        C582   1.268       .  A
O562       Ni585   1.914       .  S
O562        C571   1.267       .  A
O563       Ni567   1.901   1_556  S
O563      Ni1023   1.910   1_566  S
O563       Ni579   1.917       .  S
C564        O581   1.277       .  A
C564        O573   1.276       .  A
C564        C658   1.464       .  S
O565       Ni584   1.915   1_554  S
O565        C571   1.268       .  A
O566       Ni584   1.914       .  S
O566        C568   1.268       .  A
Ni567       O572   1.915       .  S
C568        O578   1.268       .  A
C568        C643   1.468       .  S
O569      Ni1461   1.925       .  S
O569        C575   1.278       .  A
O570        C575   1.276       .  A
O572        C574   1.268       .  A
C574        O580   1.268       .  A
H576        O577   0.967       .  S
O577      Ni1455   1.911   1_454  S
O578      Ni1017   1.927   1_455  S
Ni579      O1016   1.927   1_565  S
Ni579       O583   1.911       .  S
Ni579      O1457   1.925       .  S
Ni579      O1453   1.911   1_556  S
O580      Ni1023   1.926   1_565  S
O581      Ni1455   1.925   1_455  S
C582        O583   1.266       .  A
C582        C624   1.462       .  S
Ni585      O1445   1.925   1_455  S
Ni585      O1018   1.926   1_455  S
Ni585      O1001   1.910   1_454  S
O587       Ni593   1.918       .  S
O587        C608   1.266       .  A
O588       Ni611   1.912       .  S
O588        C597   1.267       .  A
O589       Ni593   1.909       .  S
O589       Ni611   1.919       .  S
O589       Ni605   1.917       .  S
O589        H612   0.967       .  S
C590        O607   1.276       .  A
C590        O599   1.276       .  A
O591       Ni610   1.921       .  S
O591        C597   1.269       .  A
O592       Ni610   1.918       .  S
O592        C594   1.268       .  A
Ni593       O596   1.921       .  S
Ni593       O598   1.906       .  S
C594        O604   1.266       .  A
O595       Ni611   1.925       .  S
O595        C601   1.275       .  A
O596        C601   1.275       .  A
C597        C657   1.467       .  S
O598        C600   1.266       .  A
O599       Ni610   1.925       .  S
C600        O606   1.268       .  A
C600        C623   1.461       .  S
C601        C644   1.465       .  S
H602        O603   0.965       .  S
O603       Ni611   1.916       .  S
O603       Ni605   1.911       .  S
O603       Ni610   1.906       .  S
O604       Ni605   1.923       .  S
Ni605       O609   1.903       .  S
Ni605       O607   1.925       .  S
O606       Ni611   1.925       .  S
C608        O609   1.264       .  A
O613       Ni621   1.907       .  S
O613        C623   1.277       .  A
O614       Ni621   1.900       .  S
O614        C624   1.278       .  A
O615       Ni621   1.922       .  S
O615        C625   1.283       .  A
O616       Ni621   1.921       .  S
O616        C626   1.283       .  A
O617       Ni622   1.898       .  S
O617        C626   1.278       .  A
O618       Ni622   1.910       .  S
O618        C625   1.280       .  A
O619       Ni622   1.926       .  S
O619        C624   1.282       .  A
O620       Ni622   1.925       .  S
O620        C623   1.283       .  A
Ni621      Ni622   2.389       .  S
C625        C709   1.490       .  S
C626        C721   1.472       .  S
C627        C676   1.492       .  S
C627        C628   1.405       .  A
C627        C632   1.409       .  A
C628        C724   1.481       .  S
C628        C629   1.411       .  A
C629        C697   1.485       .  S
C629        C630   1.415       .  A
C630        C661   1.496       .  S
C630        C631   1.421       .  A
C631        C712   1.489       .  S
C631        C632   1.419       .  A
C632        C688   1.487       .  S
O633       Ni641   1.921       .  S
O633        C643   1.281       .  A
O634       Ni641   1.913       .  S
O634        C644   1.280       .  A
O635       Ni641   1.914       .  S
O635        C645   1.281       .  A
O636       Ni641   1.916       .  S
O636        C646   1.281       .  A
O637       Ni642   1.930       .  S
O637        C646   1.283       .  A
O638       Ni642   1.921       .  S
O638        C645   1.282       .  A
O639       Ni642   1.929       .  S
O639        C644   1.282       .  A
O640       Ni642   1.923       .  S
O640        C643   1.282       .  A
Ni641      Ni642   2.389       .  S
C645        C673   1.481       .  S
C646       C1540   1.481   1_455  S
O647       Ni655   1.910       .  S
O647        C657   1.280       .  A
O648       Ni655   1.921       .  S
O648        C658   1.280       .  A
O649       Ni655   1.926       .  S
O649        C659   1.283       .  A
O650       Ni655   1.917       .  S
O650        C660   1.282       .  A
O651       Ni656   1.911       .  S
O651        C660   1.279       .  A
O652       Ni656   1.905       .  S
O652        C659   1.278       .  A
O653       Ni656   1.918       .  S
O653        C658   1.282       .  A
O654       Ni656   1.924       .  S
O654        C657   1.282       .  A
Ni655      Ni656   2.392       .  S
C660       C1576   1.476   1_455  S
C661        C662   1.403       .  A
C661        C666   1.413       .  A
C662        C663   1.400       .  A
C662        H667   1.083       .  S
C663        C664   1.412       .  A
C663       C1546   1.445       .  S
C664       C1522   1.481       .  S
C664        C665   1.404       .  A
C665        C666   1.406       .  A
C665        H668   1.084       .  S
C666        C669   1.443       .  S
C669        N671   1.157       .  T
C670       C1539   1.445       .  S
C670        N672   1.157   1_655  T
C673        C674   1.405       .  A
C673        C678   1.413       .  A
C674        C675   1.400       .  A
C674        H679   1.085       .  S
C675        C676   1.409       .  A
C675        C682   1.442       .  S
C676        C677   1.403       .  A
C677        C678   1.400       .  A
C677        H680   1.085       .  S
C678        C681   1.443       .  S
C681        N683   1.157       .  T
C682        N684   1.157       .  T
C685        C686   1.402       .  A
C685        C690   1.411       .  A
C686        C687   1.402       .  A
C687        C688   1.411       .  A
C687        C694   1.442       .  S
C688        C689   1.401       .  A
C689        C690   1.395       .  A
C689        H692   1.085       .  S
C690        C693   1.444       .  S
C693        N695   1.157       .  T
C694        N696   1.157       .  T
C697        C698   1.400       .  A
C697        C702   1.408       .  A
C698        C699   1.397       .  A
C698        H703   1.084       .  S
C699        C700   1.413       .  A
C699        C706   1.445       .  S
C700       C1536   1.476       .  S
C700        C701   1.405       .  A
C701        C702   1.400       .  A
C701        H704   1.085       .  S
C702        C705   1.443       .  S
C705        N707   1.157       .  T
C706        N708   1.157       .  T
C709        C714   1.417   1_565  A
C710        C711   1.399       .  A
C710        H715   1.084       .  S
C711        C712   1.408       .  A
C711        C718   1.443       .  S
C712        C713   1.402       .  A
C713        H716   1.085       .  S
C714        C717   1.444   1_545  S
C717        N719   1.157       .  T
C718        N720   1.157       .  T
C721        C722   1.405       .  A
C721        C726   1.411       .  A
C722        C723   1.394       .  A
C722        H727   1.085       .  S
C723        C724   1.406       .  A
C723        C730   1.443       .  S
C724        C725   1.402       .  A
C725        C726   1.398       .  A
C725        H728   1.084       .  S
C726        C729   1.444       .  S
C729        N731   1.157       .  T
C730        N732   1.157       .  T
C733        C734   1.401       .  A
C733        C738   1.408       .  A
C734        C735   1.396       .  A
C734        H739   1.085       .  S
C735        C736   1.411       .  A
C735        C742   1.444       .  S
C736        C737   1.402       .  A
C737        C738   1.396       .  A
C737        H740   1.085       .  S
C738        C741   1.443       .  S
C741        N743   1.157       .  T
C742        N744   1.157       .  T
C745        C746   1.400       .  A
C745        C750   1.408       .  A
C746        C747   1.396       .  A
C746        H751   1.085       .  S
C747        C748   1.416       .  A
C747        C754   1.444       .  S
C748        C749   1.406       .  A
C749        C750   1.395       .  A
C749        H752   1.085       .  S
C750        C753   1.443       .  S
C753        N755   1.157       .  T
C754        N756   1.157       .  T
C757        C762   1.413       .  A
C758        C759   1.398       .  A
C758        H763   1.085       .  S
C759        C766   1.442       .  S
C760        C761   1.403       .  A
C761        C762   1.403       .  A
C761        H764   1.085       .  S
C762        C765   1.441       .  S
C765        N767   1.157       .  T
C766        N768   1.157       .  T
C769        C770   1.406       .  A
C770        C771   1.403       .  A
C770        H775   1.085       .  S
C771        C772   1.412       .  A
C771        C778   1.441       .  S
C773        C774   1.399       .  A
C773        H776   1.085       .  S
C774        C777   1.445       .  S
C777        N779   1.157       .  T
C778        N780   1.157       .  T
C781       C1658   1.406       .  A
C781        C786   1.417       .  A
C782       C1657   1.406       .  A
C782        C783   1.403   1_455  A
C782        H787   1.085   1_455  S
C783       C1660   1.409       .  A
C783        C790   1.442       .  S
C784       C1659   1.409       .  A
C784        C785   1.399       .  A
C785        C786   1.397       .  A
C785        H788   1.084       .  S
C786        C789   1.444       .  S
C789        N791   1.157       .  T
C790        N792   1.157       .  T
C793        C794   1.402       .  A
C793        C798   1.411       .  A
C794        C795   1.402       .  A
C794        H799   1.085       .  S
C795        C796   1.413       .  A
C795        C802   1.443       .  S
C796        C797   1.399       .  A
C797        C798   1.394       .  A
C797        H800   1.085       .  S
C798       C1677   1.443       .  S
C801       C1674   1.443       .  S
C801        N803   1.157       .  T
C802        N804   1.157       .  T
C805        C806   1.406       .  A
C805        C810   1.413       .  A
C806        C807   1.395       .  A
C806        H811   1.085       .  S
C807        C808   1.406       .  A
C807        C814   1.443       .  S
C808        C809   1.402       .  A
C809        C810   1.399       .  A
C809        H812   1.084       .  S
C810        C813   1.443       .  S
C813        N815   1.157       .  T
C814        N816   1.157       .  T
C817        C818   1.405       .  A
C817        C822   1.412       .  A
C818        C819   1.401       .  A
C818        H823   1.085       .  S
C819        C820   1.409       .  A
C819        C826   1.443       .  S
C820        C821   1.403       .  A
C821        C822   1.400       .  A
C821        H824   1.085       .  S
C822        C825   1.444       .  S
C826        N828   1.157       .  T
C829       C1388   1.466   1_455  S
C829        C830   1.401       .  A
C829        C834   1.407       .  A
C830        C831   1.399       .  A
C830        H835   1.085       .  S
C831        C832   1.412       .  A
C831        C838   1.443       .  S
C832        C833   1.405       .  A
C833        C834   1.397       .  A
C833        H836   1.084       .  S
C834        C837   1.444       .  S
C837        N839   1.157       .  T
C838        N840   1.157       .  T
C841        C842   1.396       .  A
C841        C846   1.409       .  A
C842        C843   1.395       .  A
C842        H847   1.084       .  S
C843        C844   1.419       .  A
C844        C845   1.405       .  A
C845        C846   1.401       .  A
C845        H848   1.084       .  S
C846        C849   1.444       .  S
C849        N851   1.157       .  T
C850        N852   1.157       .  T
C853       C1373   1.496   1_455  S
C853        C854   1.409       .  A
C853        C858   1.420       .  A
C854        C855   1.404       .  A
C854       H1735   1.084       .  S
C855        C856   1.412       .  A
C855        C862   1.443       .  S
C856        C857   1.400       .  A
C857        C858   1.399       .  A
C857        H860   1.084       .  S
C858        C861   1.444       .  S
H859       C1730   1.084       .  S
C861        N863   1.157       .  T
C862        N864   1.157       .  T
C865        C866   1.400       .  A
C865        C870   1.410       .  A
C866        C867   1.396       .  A
C866        H871   1.084       .  S
C867        C868   1.412       .  A
C867        C874   1.444       .  S
C868        C869   1.402       .  A
C869        C870   1.399       .  A
C869        H872   1.085       .  S
C870        C873   1.443       .  S
C873        N875   1.157       .  T
C874        N876   1.157       .  T
O877       Ni883   1.921       .  S
O877        C898   1.269       .  A
O878       Ni901   1.904       .  S
O878        C887   1.265       .  A
O879       Ni883   1.906       .  S
O879       Ni901   1.912       .  S
O879       Ni895   1.917       .  S
O879        H902   0.965       .  S
C880        O897   1.275       .  A
C880        O889   1.274       .  A
C880        C934   1.466       .  S
O881       Ni900   1.919       .  S
O881        C887   1.267       .  A
O882       Ni900   1.907       .  S
O882        C884   1.266       .  A
Ni883       O886   1.921       .  S
Ni883       O888   1.914       .  S
C884        O894   1.268       .  A
C884        C919   1.464       .  S
O885       Ni901   1.923       .  S
O885        C891   1.275       .  A
O886        C891   1.274       .  A
C887        C995   1.460       .  S
O888        C890   1.269       .  A
O889       Ni900   1.923       .  S
C890        O896   1.269       .  A
C890        C962   1.469       .  S
C891        C976   1.464       .  S
H892        O893   0.967       .  S
O893       Ni901   1.916       .  S
O893       Ni895   1.918       .  S
O893       Ni900   1.910       .  S
O894       Ni895   1.927       .  S
Ni895       O899   1.909       .  S
Ni895       O897   1.924       .  S
O896       Ni901   1.929       .  S
C898        O899   1.266       .  A
C898        C947   1.465       .  S
C903       C1303   1.486       .  S
C903        C904   1.405       .  A
C903        C908   1.405       .  A
C904       C1279   1.484       .  S
C904        C905   1.412       .  A
C905       C1258   1.488       .  S
C905        C906   1.420       .  A
C906       C1294   1.496       .  S
C906        C907   1.421       .  A
C907       C1270   1.489       .  S
C907        C908   1.415       .  A
C908       C1246   1.486       .  S
O909       Ni917   1.924       .  S
O909        C919   1.283       .  A
O910       Ni917   1.927       .  S
O910        C920   1.282       .  A
O911       Ni917   1.915       .  S
O911        C921   1.280       .  A
O912       Ni917   1.902       .  S
O912        C922   1.279       .  A
O913       Ni918   1.920       .  S
O913        C922   1.282       .  A
O914       Ni918   1.922       .  S
O914        C921   1.282       .  A
O915       Ni918   1.902       .  S
O915        C920   1.279       .  A
O916       Ni918   1.912       .  S
O916        C919   1.278       .  A
Ni917      Ni918   2.389       .  S
C920       C1009   1.464       .  S
C921       C1693   1.478   1_545  S
C922       C1243   1.478       .  S
O923       Ni931   1.920       .  S
O923        C933   1.281       .  A
O924       Ni931   1.915       .  S
O924        C934   1.281       .  A
O925       Ni931   1.911       .  S
O925        C935   1.280       .  A
O926       Ni931   1.907       .  S
O926        C936   1.279       .  A
O927       Ni932   1.921       .  S
O927        C936   1.282       .  A
O928       Ni932   1.929       .  S
O928        C935   1.285       .  A
O929       Ni932   1.928       .  S
O929        C934   1.281       .  A
O930       Ni932   1.924       .  S
O930        C933   1.282       .  A
Ni931      Ni932   2.388       .  S
C933       C1012   1.468       .  S
C936       C1306   1.470       .  S
O937       Ni945   1.923       .  S
O937        C947   1.282       .  A
O938       Ni945   1.920       .  S
O938        C948   1.282       .  A
O939       Ni945   1.898       .  S
O939        C949   1.277       .  A
O940       Ni945   1.903       .  S
O940        C950   1.277       .  A
O941       Ni946   1.921       .  S
O941        C950   1.282       .  A
O942       Ni946   1.930       .  S
O942        C949   1.285       .  A
O943       Ni946   1.918       .  S
O943        C948   1.279       .  A
O944       Ni946   1.909       .  S
O944        C947   1.279       .  A
Ni945      Ni946   2.391       .  S
C948       C1013   1.463       .  S
C949       C1720   1.482   1_545  S
O951        C961   1.282       .  A
O952       Ni959   1.927       .  S
O952        C962   1.282       .  A
O953       Ni959   1.923       .  S
O953        C963   1.283   1_655  A
O954       Ni959   1.910       .  S
O954        C964   1.279       .  A
O955       Ni960   1.921       .  S
O956       Ni960   1.912       .  S
O957        C962   1.281       .  A
O958       Ni960   1.924       .  S
O958        C961   1.281       .  A
C961       C1032   1.471       .  S
C963       C1219   1.484       .  S
C964       C1231   1.471       .  S
O965      Ni1411   1.920       .  S
O965        C975   1.282       .  A
O966       Ni973   1.925       .  S
O966        C976   1.281       .  A
O967       Ni973   1.911       .  S
O967       C1415   1.280   1_545  A
O968       Ni973   1.923       .  S
O968       C1416   1.282   1_545  A
O969       Ni974   1.919       .  S
O969        C978   1.281       .  A
O970       Ni974   1.927       .  S
O970        C977   1.284       .  A
O971      Ni1412   1.915   1_545  S
O971        C976   1.280       .  A
O972       Ni974   1.922       .  S
O972        C975   1.280       .  A
Ni973      O1403   1.920   1_545  S
Ni973     Ni1412   2.389   1_545  S
Ni974      O1409   1.915       .  S
Ni974     Ni1411   2.389       .  S
C975       C1028   1.466       .  S
C977       O1405   1.280       .  A
C977       C1207   1.491       .  S
C978       O1406   1.282       .  A
C978       C1198   1.478       .  S
C979       C1210   1.496       .  S
C979       C1422   1.413       .  A
C980       C1234   1.488       .  S
C980        C981   1.418       .  A
C981       C1183   1.483       .  S
C981        C982   1.415       .  A
C982       C1195   1.492       .  S
C982       C1421   1.410       .  A
C983       C1222   1.489       .  S
C983       C1420   1.410   1_545  A
C984       C1171   1.480       .  S
C984       C1417   1.413   1_545  A
O985       Ni993   1.909       .  S
O985        C995   1.281       .  A
O986       Ni993   1.914       .  S
O986        C996   1.280       .  A
O987       Ni993   1.910       .  S
O987        C997   1.280       .  A
O988       Ni993   1.909       .  S
O988        C998   1.280       .  A
O989       Ni994   1.910       .  S
O989        C998   1.280       .  A
O990       Ni994   1.907       .  S
O990        C997   1.281       .  A
O991       Ni994   1.907       .  S
O991        C996   1.280       .  A
O992       Ni994   1.913       .  S
O992        C995   1.279       .  A
Ni993      Ni994   2.392       .  S
C996       C1046   1.459       .  S
C997       C1186   1.480       .  S
C998       C1174   1.467       .  S
O999      Ni1005   1.916   1_556  S
O999       C1020   1.268       .  A
O1000     Ni1023   1.914       .  S
O1000      C1009   1.267       .  A
O1001     Ni1005   1.901   1_556  S
O1001     Ni1017   1.917       .  S
O1001      H1462   0.967       .  S
C1002      O1019   1.277       .  A
C1002      O1011   1.276       .  A
C1002      C1096   1.464       .  S
O1003     Ni1022   1.915   1_554  S
O1003      C1009   1.268       .  A
O1004     Ni1022   1.914       .  S
O1004      C1006   1.268       .  A
Ni1005     O1446   1.921       .  S
Ni1005     O1010   1.915       .  S
C1006      O1016   1.268       .  A
C1006      C1081   1.468       .  S
O1007      C1013   1.278       .  A
O1008     Ni1443   1.921   1_545  S
O1008      C1013   1.276       .  A
O1010      C1012   1.268       .  A
O1011     Ni1460   1.922       .  S
C1012      O1018   1.268       .  A
H1014      O1015   0.967       .  S
O1015     Ni1461   1.917       .  S
O1015     Ni1460   1.901   1_554  S
Ni1017     O1021   1.911       .  S
C1020      O1021   1.266       .  A
C1020      C1062   1.462       .  S
Ni1022     O1449   1.922   1_545  S
Ni1022     O1453   1.901   1_546  S
Ni1023     O1453   1.917   1_545  S
H1024      O1439   0.967   1_545  S
O1025     Ni1031   1.918       .  S
O1025      C1046   1.266       .  A
O1026     Ni1049   1.912       .  S
O1026      C1035   1.267       .  A
O1027     Ni1031   1.909       .  S
O1027     Ni1049   1.919       .  S
O1027     Ni1043   1.917       .  S
O1027      H1050   0.967       .  S
C1028      O1045   1.276       .  A
C1028      O1037   1.276       .  A
O1029     Ni1048   1.921       .  S
O1029      C1035   1.269       .  A
O1030     Ni1048   1.918       .  S
O1030      C1032   1.268       .  A
Ni1031     O1034   1.921       .  S
Ni1031     O1036   1.906       .  S
C1032      O1042   1.266       .  A
O1033     Ni1049   1.925       .  S
O1033      C1039   1.275       .  A
O1034      C1039   1.275       .  A
C1035      C1095   1.467       .  S
O1036      C1038   1.266       .  A
O1037     Ni1048   1.925       .  S
C1038      O1044   1.268       .  A
C1038      C1061   1.461       .  S
C1039      C1082   1.465       .  S
H1040      O1041   0.965       .  S
O1041     Ni1049   1.916       .  S
O1041     Ni1043   1.911       .  S
O1041     Ni1048   1.906       .  S
O1042     Ni1043   1.923       .  S
Ni1043     O1047   1.903       .  S
Ni1043     O1045   1.925       .  S
O1044     Ni1049   1.925       .  S
C1046      O1047   1.264       .  A
O1051     Ni1059   1.907       .  S
O1051      C1061   1.277       .  A
O1052     Ni1059   1.900       .  S
O1052      C1062   1.278       .  A
O1053     Ni1059   1.922       .  S
O1053      C1063   1.283       .  A
O1054     Ni1059   1.921       .  S
O1054      C1064   1.283       .  A
O1055     Ni1060   1.898       .  S
O1055      C1064   1.278       .  A
O1056     Ni1060   1.910       .  S
O1056      C1063   1.280       .  A
O1057     Ni1060   1.926       .  S
O1057      C1062   1.282       .  A
O1058     Ni1060   1.925       .  S
O1058      C1061   1.283       .  A
Ni1059    Ni1060   2.389       .  S
C1063      C1147   1.490       .  S
C1064      C1159   1.472       .  S
C1065      C1114   1.492       .  S
C1065      C1066   1.405       .  A
C1065      C1070   1.409       .  A
C1066      C1162   1.481       .  S
C1066      C1067   1.411       .  A
C1067      C1135   1.485       .  S
C1067      C1068   1.415       .  A
C1068      C1099   1.496       .  S
C1068      C1069   1.421       .  A
C1069      C1150   1.489       .  S
C1069      C1070   1.419       .  A
C1070      C1126   1.487       .  S
O1071     Ni1079   1.921       .  S
O1071      C1081   1.281       .  A
O1072     Ni1079   1.913       .  S
O1072      C1082   1.280       .  A
O1073     Ni1079   1.914       .  S
O1073      C1083   1.281       .  A
O1074     Ni1079   1.916       .  S
O1074      C1084   1.281       .  A
O1075     Ni1080   1.930       .  S
O1075      C1084   1.283       .  A
O1076     Ni1080   1.921       .  S
O1076      C1083   1.282       .  A
O1077     Ni1080   1.929       .  S
O1077      C1082   1.282       .  A
O1078     Ni1080   1.923       .  S
O1078      C1081   1.282       .  A
Ni1079    Ni1080   2.389       .  S
C1083      C1111   1.481       .  S
O1085     Ni1093   1.910       .  S
O1085      C1095   1.280       .  A
O1086     Ni1093   1.921       .  S
O1086      C1096   1.280       .  A
O1087     Ni1093   1.926       .  S
O1087      C1097   1.283       .  A
O1088     Ni1093   1.917       .  S
O1088      C1098   1.282       .  A
O1089     Ni1094   1.911       .  S
O1089      C1098   1.279       .  A
O1090     Ni1094   1.905       .  S
O1090      C1097   1.278       .  A
O1091     Ni1094   1.918       .  S
O1091      C1096   1.282       .  A
O1092     Ni1094   1.924       .  S
O1092      C1095   1.282       .  A
Ni1093    Ni1094   2.392       .  S
C1097      C1561   1.471       .  S
C1099      C1100   1.403       .  A
C1099      C1104   1.413       .  A
C1100      C1101   1.400       .  A
C1100      H1105   1.083       .  S
C1101      C1102   1.412       .  A
C1102      C1103   1.404       .  A
C1103      C1104   1.406       .  A
C1103      H1106   1.084       .  S
C1104      C1107   1.443       .  S
C1107      N1109   1.157       .  T
C1108      N1110   1.157       .  T
C1111      C1112   1.405       .  A
C1111      C1116   1.413       .  A
C1112      C1113   1.400       .  A
C1112      H1117   1.085       .  S
C1113      C1114   1.409       .  A
C1113      C1120   1.442       .  S
C1114      C1115   1.403       .  A
C1115      C1116   1.400       .  A
C1115      H1118   1.085       .  S
C1116      C1119   1.443       .  S
C1119      N1121   1.157       .  T
C1120      N1122   1.157       .  T
C1123      C1535   1.471   1_545  S
C1123      C1124   1.402       .  A
C1123      C1128   1.411       .  A
C1124      C1125   1.402       .  A
C1124      H1567   1.085   1_545  S
C1125      C1126   1.411       .  A
C1125      C1132   1.442       .  S
C1126      C1127   1.401       .  A
C1127      C1128   1.395       .  A
C1127      H1130   1.085       .  S
C1128      C1131   1.444       .  S
H1129      C1562   1.085       .  S
C1131      N1133   1.157       .  T
C1132      N1134   1.157       .  T
C1135      C1136   1.400       .  A
C1135      C1140   1.408       .  A
C1136      C1137   1.397       .  A
C1136      H1141   1.084       .  S
C1137      C1138   1.413       .  A
C1137      C1144   1.445       .  S
C1138      C1139   1.405       .  A
C1139      C1140   1.400       .  A
C1139      H1142   1.085       .  S
C1140      C1143   1.443       .  S
C1143      N1145   1.157       .  T
C1144      N1146   1.157       .  T
C1147      C1586   1.409       .  A
C1147      C1152   1.417       .  A
C1148      C1585   1.409   1_545  A
C1148      C1149   1.399       .  A
C1148      H1153   1.084       .  S
C1149      C1150   1.408       .  A
C1149      C1156   1.443       .  S
C1150      C1151   1.402       .  A
C1151      C1590   1.399       .  A
C1151      H1154   1.085       .  S
C1152      C1589   1.399       .  A
C1152      C1155   1.444       .  S
C1155      N1157   1.157       .  T
C1156      N1158   1.157       .  T
C1159      C1160   1.405       .  A
C1159      C1164   1.411       .  A
C1160      C1161   1.394       .  A
C1160      H1165   1.085       .  S
C1161      C1162   1.406       .  A
C1161      C1168   1.443       .  S
C1162      C1163   1.402       .  A
C1163      C1164   1.398       .  A
C1163      H1166   1.084       .  S
C1164      C1167   1.444       .  S
C1167      N1169   1.157       .  T
C1168      N1170   1.157       .  T
C1171      C1172   1.401       .  A
C1171      C1176   1.408       .  A
C1172      C1173   1.396       .  A
C1172      H1177   1.085       .  S
C1173      C1174   1.411       .  A
C1173      C1180   1.444       .  S
C1174      C1175   1.402       .  A
C1175      C1176   1.396       .  A
C1175      H1178   1.085       .  S
C1176      C1179   1.443       .  S
C1179      N1181   1.157       .  T
C1180      N1182   1.157       .  T
C1183      C1184   1.400       .  A
C1183      C1188   1.408       .  A
C1184      C1185   1.396       .  A
C1184      H1189   1.085       .  S
C1185      C1186   1.416       .  A
C1185      C1192   1.444       .  S
C1186      C1187   1.406       .  A
C1187      C1188   1.395       .  A
C1187      H1190   1.085       .  S
C1188      C1191   1.443       .  S
C1191      N1193   1.157       .  T
C1192      N1194   1.157       .  T
C1195      C1634   1.400       .  A
C1195      C1200   1.413       .  A
C1196      C1633   1.400   1_545  A
C1196      C1197   1.398       .  A
C1196      H1201   1.085       .  S
C1197      C1636   1.412   1_545  A
C1197      C1204   1.442       .  S
C1198      C1635   1.412       .  A
C1198      C1199   1.403       .  A
C1199      C1200   1.403       .  A
C1199      H1202   1.085       .  S
C1200      C1203   1.441       .  S
C1203      N1205   1.157       .  T
C1204      N1206   1.157       .  T
C1207      C1208   1.406       .  A
C1207      C1650   1.419       .  A
C1208      C1209   1.403       .  A
C1208      H1213   1.085       .  S
C1209      C1210   1.412       .  A
C1209      C1216   1.441       .  S
C1210      C1649   1.401       .  A
C1211      C1648   1.401   1_545  A
C1211      C1212   1.399       .  A
C1211      H1214   1.085       .  S
C1212      C1645   1.419   1_545  A
C1212      C1215   1.445       .  S
C1215      N1217   1.157       .  T
C1216      N1218   1.157       .  T
C1219      C1224   1.417       .  A
C1220      C1221   1.403       .  A
C1220      H1225   1.085       .  S
C1221      C1228   1.442       .  S
C1222      C1223   1.399   1_655  A
C1223      C1224   1.397       .  A
C1223      H1226   1.084       .  S
C1224      C1227   1.444       .  S
C1227      N1229   1.157       .  T
C1228      N1230   1.157       .  T
C1231      C1232   1.402       .  A
C1231      C1236   1.411   1_655  A
C1232      C1233   1.402       .  A
C1232      H1237   1.085       .  S
C1233      C1234   1.413       .  A
C1233      C1240   1.443       .  S
C1234      C1235   1.399   1_655  A
C1235      C1236   1.394       .  A
C1235      H1238   1.085       .  S
C1239      N1241   1.157       .  T
C1240      N1242   1.157       .  T
C1243      C1244   1.406       .  A
C1243      C1248   1.413       .  A
C1244      C1245   1.395       .  A
C1244      H1249   1.085       .  S
C1245      C1246   1.406       .  A
C1245      C1252   1.443       .  S
C1246      C1247   1.402       .  A
C1247      C1248   1.399       .  A
C1247      H1250   1.084       .  S
C1248      C1251   1.443       .  S
C1251      N1253   1.157       .  T
C1252      N1254   1.157       .  T
C1255      C1359   1.478       .  S
C1255      C1256   1.405       .  A
C1255      C1260   1.412       .  A
C1256      C1257   1.401       .  A
C1256      H1261   1.085       .  S
C1257      C1258   1.409       .  A
C1257      C1264   1.443       .  S
C1258      C1259   1.403       .  A
C1259      C1260   1.400       .  A
C1259      H1262   1.085       .  S
C1260      C1263   1.444       .  S
C1263      N1703   1.157       .  T
C1264      N1266   1.157       .  T
N1265      C1701   1.157   1_545  T
C1267      C1268   1.401       .  A
C1267      C1272   1.407       .  A
C1268      C1269   1.399       .  A
C1268      H1273   1.085       .  S
C1269      C1270   1.412       .  A
C1269      C1276   1.443       .  S
C1270      C1271   1.405       .  A
C1271      C1272   1.397       .  A
C1271      H1274   1.084       .  S
C1272      C1275   1.444       .  S
C1275      N1277   1.157       .  T
C1276      N1278   1.157       .  T
C1279      C1280   1.396       .  A
C1279      C1284   1.409       .  A
C1280      C1281   1.395       .  A
C1280      H1285   1.084       .  S
C1281      C1282   1.419       .  A
C1281      C1726   1.445       .  S
C1282      C1387   1.482       .  S
C1282      C1283   1.405       .  A
C1283      C1284   1.401       .  A
C1283      H1286   1.084       .  S
C1284      C1287   1.444       .  S
C1287      N1289   1.157       .  T
C1288      C1719   1.445       .  S
C1288      N1290   1.157   1_565  T
C1291      C1292   1.409       .  A
C1291      C1296   1.420       .  A
C1292      C1293   1.404       .  A
C1293      C1294   1.412       .  A
C1293      C1300   1.443       .  S
C1294      C1295   1.400       .  A
C1295      C1296   1.399       .  A
C1295      H1298   1.084       .  S
C1296      C1299   1.444       .  S
C1299      N1301   1.157       .  T
C1300      N1302   1.157       .  T
C1303      C1304   1.400       .  A
C1303      C1308   1.410       .  A
C1304      C1305   1.396       .  A
C1304      H1309   1.084       .  S
C1305      C1306   1.412       .  A
C1305      C1312   1.444       .  S
C1306      C1307   1.402       .  A
C1307      C1308   1.399       .  A
C1307      H1310   1.085       .  S
C1308      C1311   1.443       .  S
C1311      N1313   1.157       .  T
C1312      N1314   1.157       .  T
O1315     Ni1321   1.921       .  S
O1315      C1336   1.269       .  A
O1316     Ni1339   1.904       .  S
O1316      C1325   1.265       .  A
O1317     Ni1321   1.906       .  S
O1317     Ni1339   1.912       .  S
O1317     Ni1333   1.917       .  S
O1317      H1340   0.965       .  S
C1318      O1335   1.275       .  A
C1318      O1327   1.274       .  A
C1318      C1372   1.466       .  S
O1319     Ni1338   1.919       .  S
O1319      C1325   1.267       .  A
O1320     Ni1338   1.907       .  S
O1320      C1322   1.266       .  A
Ni1321     O1324   1.921       .  S
Ni1321     O1326   1.914       .  S
C1322      O1332   1.268       .  A
C1322      C1357   1.464       .  S
O1323     Ni1339   1.923       .  S
O1323      C1329   1.275       .  A
O1324      C1329   1.274       .  A
C1325      C1433   1.460       .  S
O1326      C1328   1.269       .  A
O1327     Ni1338   1.923       .  S
C1328      O1334   1.269       .  A
C1328      C1400   1.469       .  S
C1329      C1414   1.464       .  S
H1330      O1331   0.967       .  S
O1331     Ni1339   1.916       .  S
O1331     Ni1333   1.918       .  S
O1331     Ni1338   1.910       .  S
O1332     Ni1333   1.927       .  S
Ni1333     O1337   1.909       .  S
Ni1333     O1335   1.924       .  S
O1334     Ni1339   1.929       .  S
C1336      O1337   1.266       .  A
C1336      C1385   1.465       .  S
C1341      C1741   1.486       .  S
C1341      C1342   1.405       .  A
C1341      C1346   1.405       .  A
C1342      C1717   1.484       .  S
C1342      C1343   1.412       .  A
C1343      C1696   1.488       .  S
C1343      C1344   1.420       .  A
C1344      C1732   1.496       .  S
C1344      C1345   1.421       .  A
C1345      C1708   1.489       .  S
C1345      C1346   1.415       .  A
C1346      C1684   1.486       .  S
O1347     Ni1355   1.924       .  S
O1347      C1357   1.283       .  A
O1348     Ni1355   1.927       .  S
O1348      C1358   1.282       .  A
O1349     Ni1355   1.915       .  S
O1349      C1359   1.280       .  A
O1350     Ni1355   1.902       .  S
O1350      C1360   1.279       .  A
O1351     Ni1356   1.920       .  S
O1351      C1360   1.282       .  A
O1352     Ni1356   1.922       .  S
O1352      C1359   1.282       .  A
O1353     Ni1356   1.902       .  S
O1353      C1358   1.279       .  A
O1354     Ni1356   1.912       .  S
O1354      C1357   1.278       .  A
Ni1355    Ni1356   2.389       .  S
C1358      C1447   1.464       .  S
C1360      C1681   1.478       .  S
O1361     Ni1369   1.920       .  S
O1361      C1371   1.281       .  A
O1362     Ni1369   1.915       .  S
O1362      C1372   1.281       .  A
O1363     Ni1369   1.911       .  S
O1363      C1373   1.280       .  A
O1364     Ni1369   1.907       .  S
O1364      C1374   1.279       .  A
O1365     Ni1370   1.921       .  S
O1365      C1374   1.282       .  A
O1366     Ni1370   1.929       .  S
O1366      C1373   1.285       .  A
O1367     Ni1370   1.928       .  S
O1367      C1372   1.281       .  A
O1368     Ni1370   1.924       .  S
O1368      C1371   1.282       .  A
Ni1369    Ni1370   2.388       .  S
C1371      C1450   1.468       .  S
C1374      C1744   1.470       .  S
O1375     Ni1383   1.923       .  S
O1375      C1385   1.282       .  A
O1376     Ni1383   1.920       .  S
O1376      C1386   1.282       .  A
O1377     Ni1383   1.898       .  S
O1377      C1387   1.277       .  A
O1378     Ni1383   1.903       .  S
O1378      C1388   1.277       .  A
O1379     Ni1384   1.921       .  S
O1379      C1388   1.282       .  A
O1380     Ni1384   1.930       .  S
O1380      C1387   1.285       .  A
O1381     Ni1384   1.918       .  S
O1381      C1386   1.279       .  A
O1382     Ni1384   1.909       .  S
O1382      C1385   1.279       .  A
Ni1383    Ni1384   2.391       .  S
C1386      C1451   1.463       .  S
O1389      C1399   1.282       .  A
O1390     Ni1397   1.927       .  S
O1390      C1400   1.282       .  A
O1391     Ni1397   1.923       .  S
O1391      C1401   1.283   1_655  A
O1392     Ni1397   1.910       .  S
O1392      C1402   1.279       .  A
O1393     Ni1398   1.921       .  S
O1394     Ni1398   1.912       .  S
O1395      C1400   1.281       .  A
O1396     Ni1398   1.924       .  S
O1396      C1399   1.281       .  A
C1399      C1470   1.471       .  S
C1401      C1657   1.484       .  S
C1402      C1669   1.471       .  S
O1403      C1413   1.282       .  A
O1404     Ni1411   1.925       .  S
O1404      C1414   1.281       .  A
O1405     Ni1411   1.911       .  S
O1406     Ni1411   1.923       .  S
O1407     Ni1412   1.919       .  S
O1407      C1416   1.281       .  A
O1408     Ni1412   1.927       .  S
O1408      C1415   1.284       .  A
O1409      C1414   1.280       .  A
O1410     Ni1412   1.922       .  S
O1410      C1413   1.280       .  A
C1413      C1466   1.466       .  S
C1415      C1645   1.491       .  S
C1416      C1636   1.478       .  S
C1417      C1648   1.496       .  S
C1418      C1672   1.488       .  S
C1418      C1419   1.418       .  A
C1419      C1621   1.483       .  S
C1419      C1420   1.415       .  A
C1420      C1633   1.492       .  S
C1421      C1660   1.489       .  S
C1422      C1609   1.480       .  S
O1423     Ni1431   1.909       .  S
O1423      C1433   1.281       .  A
O1424     Ni1431   1.914       .  S
O1424      C1434   1.280       .  A
O1425     Ni1431   1.910       .  S
O1425      C1435   1.280       .  A
O1426     Ni1431   1.909       .  S
O1426      C1436   1.280       .  A
O1427     Ni1432   1.910       .  S
O1427      C1436   1.280       .  A
O1428     Ni1432   1.907       .  S
O1428      C1435   1.281       .  A
O1429     Ni1432   1.907       .  S
O1429      C1434   1.280       .  A
O1430     Ni1432   1.913       .  S
O1430      C1433   1.279       .  A
Ni1431    Ni1432   2.392       .  S
C1434      C1484   1.459       .  S
C1435      C1624   1.480       .  S
C1436      C1612   1.467       .  S
O1437     Ni1443   1.916   1_556  S
O1437      C1458   1.268       .  A
O1438     Ni1461   1.914       .  S
O1438      C1447   1.267       .  A
O1439     Ni1443   1.901   1_556  S
O1439     Ni1455   1.917       .  S
C1440      O1457   1.277       .  A
C1440      O1449   1.276       .  A
C1440      C1534   1.464       .  S
O1441     Ni1460   1.915   1_554  S
O1441      C1447   1.268       .  A
O1442     Ni1460   1.914       .  S
O1442      C1444   1.268       .  A
Ni1443     O1448   1.915       .  S
C1444      O1454   1.268       .  A
C1444      C1519   1.468       .  S
O1445      C1451   1.278       .  A
O1446      C1451   1.276       .  A
O1448      C1450   1.268       .  A
C1450      O1456   1.268       .  A
H1452      O1453   0.967       .  S
Ni1455     O1459   1.911       .  S
C1458      O1459   1.266       .  A
C1458      C1500   1.462       .  S
O1463     Ni1469   1.918       .  S
O1463      C1484   1.266       .  A
O1464     Ni1487   1.912       .  S
O1464      C1473   1.267       .  A
O1465     Ni1469   1.909       .  S
O1465     Ni1487   1.919       .  S
O1465     Ni1481   1.917       .  S
O1465      H1488   0.967       .  S
C1466      O1483   1.276       .  A
C1466      O1475   1.276       .  A
O1467     Ni1486   1.921       .  S
O1467      C1473   1.269       .  A
O1468     Ni1486   1.918       .  S
O1468      C1470   1.268       .  A
Ni1469     O1472   1.921       .  S
Ni1469     O1474   1.906       .  S
C1470      O1480   1.266       .  A
O1471     Ni1487   1.925       .  S
O1471      C1477   1.275       .  A
O1472      C1477   1.275       .  A
C1473      C1533   1.467       .  S
O1474      C1476   1.266       .  A
O1475     Ni1486   1.925       .  S
C1476      O1482   1.268       .  A
C1476      C1499   1.461       .  S
C1477      C1520   1.465       .  S
H1478      O1479   0.965       .  S
O1479     Ni1487   1.916       .  S
O1479     Ni1481   1.911       .  S
O1479     Ni1486   1.906       .  S
O1480     Ni1481   1.923       .  S
Ni1481     O1485   1.903       .  S
Ni1481     O1483   1.925       .  S
O1482     Ni1487   1.925       .  S
C1484      O1485   1.264       .  A
O1489     Ni1497   1.907       .  S
O1489      C1499   1.277       .  A
O1490     Ni1497   1.900       .  S
O1490      C1500   1.278       .  A
O1491     Ni1497   1.922       .  S
O1491      C1501   1.283       .  A
O1492     Ni1497   1.921       .  S
O1492      C1502   1.283       .  A
O1493     Ni1498   1.898       .  S
O1493      C1502   1.278       .  A
O1494     Ni1498   1.910       .  S
O1494      C1501   1.280       .  A
O1495     Ni1498   1.926       .  S
O1495      C1500   1.282       .  A
O1496     Ni1498   1.925       .  S
O1496      C1499   1.283       .  A
Ni1497    Ni1498   2.389       .  S
C1501      C1585   1.490       .  S
C1502      C1597   1.472       .  S
C1503      C1552   1.492       .  S
C1503      C1504   1.405       .  A
C1503      C1508   1.409       .  A
C1504      C1600   1.481       .  S
C1504      C1505   1.411       .  A
C1505      C1573   1.485       .  S
C1505      C1506   1.415       .  A
C1506      C1537   1.496       .  S
C1506      C1507   1.421       .  A
C1507      C1588   1.489       .  S
C1507      C1508   1.419       .  A
C1508      C1564   1.487       .  S
O1509     Ni1517   1.921       .  S
O1509      C1519   1.281       .  A
O1510     Ni1517   1.913       .  S
O1510      C1520   1.280       .  A
O1511     Ni1517   1.914       .  S
O1511      C1521   1.281       .  A
O1512     Ni1517   1.916       .  S
O1512      C1522   1.281       .  A
O1513     Ni1518   1.930       .  S
O1513      C1522   1.283       .  A
O1514     Ni1518   1.921       .  S
O1514      C1521   1.282       .  A
O1515     Ni1518   1.929       .  S
O1515      C1520   1.282       .  A
O1516     Ni1518   1.923       .  S
O1516      C1519   1.282       .  A
Ni1517    Ni1518   2.389       .  S
C1521      C1549   1.481       .  S
O1523     Ni1531   1.910       .  S
O1523      C1533   1.280       .  A
O1524     Ni1531   1.921       .  S
O1524      C1534   1.280       .  A
O1525     Ni1531   1.926       .  S
O1525      C1535   1.283       .  A
O1526     Ni1531   1.917       .  S
O1526      C1536   1.282       .  A
O1527     Ni1532   1.911       .  S
O1527      C1536   1.279       .  A
O1528     Ni1532   1.905       .  S
O1528      C1535   1.278       .  A
O1529     Ni1532   1.918       .  S
O1529      C1534   1.282       .  A
O1530     Ni1532   1.924       .  S
O1530      C1533   1.282       .  A
Ni1531    Ni1532   2.392       .  S
C1537      C1538   1.403       .  A
C1537      C1542   1.413       .  A
C1538      C1539   1.400       .  A
C1538      H1543   1.083       .  S
C1539      C1540   1.412       .  A
C1540      C1541   1.404       .  A
C1541      C1542   1.406       .  A
C1541      H1544   1.084       .  S
C1542      C1545   1.443       .  S
C1545      N1547   1.157       .  T
C1546      N1548   1.157       .  T
C1549      C1550   1.405       .  A
C1549      C1554   1.413       .  A
C1550      C1551   1.400       .  A
C1550      H1555   1.085       .  S
C1551      C1552   1.409       .  A
C1551      C1558   1.442       .  S
C1552      C1553   1.403       .  A
C1553      C1554   1.400       .  A
C1553      H1556   1.085       .  S
C1554      C1557   1.443       .  S
C1557      N1559   1.157       .  T
C1558      N1560   1.157       .  T
C1561      C1562   1.402       .  A
C1561      C1566   1.411       .  A
C1562      C1563   1.402       .  A
C1563      C1564   1.411       .  A
C1563      C1570   1.442       .  S
C1564      C1565   1.401       .  A
C1565      C1566   1.395       .  A
C1565      H1568   1.085       .  S
C1566      C1569   1.444       .  S
C1569      N1571   1.157       .  T
C1570      N1572   1.157       .  T
C1573      C1574   1.400       .  A
C1573      C1578   1.408       .  A
C1574      C1575   1.397       .  A
C1574      H1579   1.084       .  S
C1575      C1576   1.413       .  A
C1575      C1582   1.445       .  S
C1576      C1577   1.405       .  A
C1577      C1578   1.400       .  A
C1577      H1580   1.085       .  S
C1578      C1581   1.443       .  S
C1581      N1583   1.157       .  T
C1582      N1584   1.157       .  T
C1585      C1590   1.417   1_565  A
C1586      C1587   1.399       .  A
C1586      H1591   1.084       .  S
C1587      C1588   1.408       .  A
C1587      C1594   1.443       .  S
C1588      C1589   1.402       .  A
C1589      H1592   1.085       .  S
C1590      C1593   1.444   1_545  S
C1593      N1595   1.157       .  T
C1594      N1596   1.157       .  T
C1597      C1598   1.405       .  A
C1597      C1602   1.411       .  A
C1598      C1599   1.394       .  A
C1598      H1603   1.085       .  S
C1599      C1600   1.406       .  A
C1599      C1606   1.443       .  S
C1600      C1601   1.402       .  A
C1601      C1602   1.398       .  A
C1601      H1604   1.084       .  S
C1602      C1605   1.444       .  S
C1605      N1607   1.157       .  T
C1606      N1608   1.157       .  T
C1609      C1610   1.401       .  A
C1609      C1614   1.408       .  A
C1610      C1611   1.396       .  A
C1610      H1615   1.085       .  S
C1611      C1612   1.411       .  A
C1611      C1618   1.444       .  S
C1612      C1613   1.402       .  A
C1613      C1614   1.396       .  A
C1613      H1616   1.085       .  S
C1614      C1617   1.443       .  S
C1617      N1619   1.157       .  T
C1618      N1620   1.157       .  T
C1621      C1622   1.400       .  A
C1621      C1626   1.408       .  A
C1622      C1623   1.396       .  A
C1622      H1627   1.085       .  S
C1623      C1624   1.416       .  A
C1623      C1630   1.444       .  S
C1624      C1625   1.406       .  A
C1625      C1626   1.395       .  A
C1625      H1628   1.085       .  S
C1626      C1629   1.443       .  S
C1629      N1631   1.157       .  T
C1630      N1632   1.157       .  T
C1633      C1638   1.413       .  A
C1634      C1635   1.398       .  A
C1634      H1639   1.085       .  S
C1635      C1642   1.442       .  S
C1636      C1637   1.403       .  A
C1637      C1638   1.403       .  A
C1637      H1640   1.085       .  S
C1638      C1641   1.441       .  S
C1641      N1643   1.157       .  T
C1642      N1644   1.157       .  T
C1645      C1646   1.406       .  A
C1646      C1647   1.403       .  A
C1646      H1651   1.085       .  S
C1647      C1648   1.412       .  A
C1647      C1654   1.441       .  S
C1649      C1650   1.399       .  A
C1649      H1652   1.085       .  S
C1650      C1653   1.445       .  S
C1653      N1655   1.157       .  T
C1654      N1656   1.157       .  T
C1657      C1662   1.417       .  A
C1658      C1659   1.403       .  A
C1658      H1663   1.085       .  S
C1659      C1666   1.442       .  S
C1660      C1661   1.399   1_655  A
C1661      C1662   1.397       .  A
C1661      H1664   1.084       .  S
C1662      C1665   1.444       .  S
C1665      N1667   1.157       .  T
C1666      N1668   1.157       .  T
C1669      C1670   1.402       .  A
C1669      C1674   1.411   1_655  A
C1670      C1671   1.402       .  A
C1670      H1675   1.085       .  S
C1671      C1672   1.413       .  A
C1671      C1678   1.443       .  S
C1672      C1673   1.399   1_655  A
C1673      C1674   1.394       .  A
C1673      H1676   1.085       .  S
C1677      N1679   1.157       .  T
C1678      N1680   1.157       .  T
C1681      C1682   1.406       .  A
C1681      C1686   1.413       .  A
C1682      C1683   1.395       .  A
C1682      H1687   1.085       .  S
C1683      C1684   1.406       .  A
C1683      C1690   1.443       .  S
C1684      C1685   1.402       .  A
C1685      C1686   1.399       .  A
C1685      H1688   1.084       .  S
C1686      C1689   1.443       .  S
C1689      N1691   1.157       .  T
C1690      N1692   1.157       .  T
C1693      C1694   1.405       .  A
C1693      C1698   1.412       .  A
C1694      C1695   1.401       .  A
C1694      H1699   1.085       .  S
C1695      C1696   1.409       .  A
C1695      C1702   1.443       .  S
C1696      C1697   1.403       .  A
C1697      C1698   1.400       .  A
C1697      H1700   1.085       .  S
C1698      C1701   1.444       .  S
C1702      N1704   1.157       .  T
C1705      C1706   1.401       .  A
C1705      C1710   1.407       .  A
C1706      C1707   1.399       .  A
C1706      H1711   1.085       .  S
C1707      C1708   1.412       .  A
C1707      C1714   1.443       .  S
C1708      C1709   1.405       .  A
C1709      C1710   1.397       .  A
C1709      H1712   1.084       .  S
C1710      C1713   1.444       .  S
C1713      N1715   1.157       .  T
C1714      N1716   1.157       .  T
C1717      C1718   1.396       .  A
C1717      C1722   1.409       .  A
C1718      C1719   1.395       .  A
C1718      H1723   1.084       .  S
C1719      C1720   1.419       .  A
C1720      C1721   1.405       .  A
C1721      C1722   1.401       .  A
C1721      H1724   1.084       .  S
C1722      C1725   1.444       .  S
C1725      N1727   1.157       .  T
C1726      N1728   1.157       .  T
C1729      C1730   1.409       .  A
C1729      C1734   1.420       .  A
C1730      C1731   1.404       .  A
C1731      C1732   1.412       .  A
C1731      C1738   1.443       .  S
C1732      C1733   1.400       .  A
C1733      C1734   1.399       .  A
C1733      H1736   1.084       .  S
C1734      C1737   1.444       .  S
C1737      N1739   1.157       .  T
C1738      N1740   1.157       .  T
C1741      C1742   1.400       .  A
C1741      C1746   1.410       .  A
C1742      C1743   1.396       .  A
C1742      H1747   1.084       .  S
C1743      C1744   1.412       .  A
C1743      C1750   1.444       .  S
C1744      C1745   1.402       .  A
C1745      C1746   1.399       .  A
C1745      H1748   1.085       .  S
C1746      C1749   1.443       .  S
C1749      N1751   1.157       .  T
C1750      N1752   1.157       .  T
