geometry optimzed in LAMMPS
_audit_creation_date              2020-11-30 
_audit_creation_method            'lammps2cif' 
_symmetry_space_group_name_H-M    'P1' 
_symmetry_Int_Tables_number       1 
_symmetry_cell_setting            triclinic 
loop_ 
_symmetry_equiv_pos_as_xyz 
  x,y,z 
_cell_length_a                    33.32557326 
_cell_length_b                    32.86158638076698 
_cell_length_c                    28.864563067747426 
_cell_angle_alpha                 89.85275878697296 
_cell_angle_beta                  90.1990098469572 
_cell_angle_gamma                 120.11045531911472 
loop_ 
_atom_site_label 
_atom_site_type_symbol 
_atom_site_fract_x 
_atom_site_fract_y 
_atom_site_fract_z 
_atom_site_charge 
O1          O  0.10135015  0.33405092  0.31899077    -0.82000
C2          C  0.20926685  0.28902812  0.43768673     0.97400
O3          O  0.17295318  0.26116344  0.41592890    -0.71100
O4          O  0.09975861  0.26915604  0.43170883    -0.74700
Al5        Al  0.13095417  0.26849247  0.37718158     1.49000
C6          C  0.07709536  0.29011353  0.43713415     0.92600
O7          O  0.16587779  0.40098858  0.42569494    -0.80900
O8          O  0.23036753  0.39311921  0.31709570    -0.74500
Al9        Al  0.13514114  0.36501984  0.37244034     1.90100
O10         O  0.23548624  0.41369142  0.40965129    -0.73600
O11         O  0.22946401  0.31444798  0.33728963    -0.73400
O12         O  0.22946012  0.33259595  0.42945142    -0.79100
O13         O  0.15816693  0.25910106  0.32292131    -0.77300
O14         O  0.16403196  0.33147228  0.37429378    -1.13400
O15         O  0.08173714  0.26204656  0.33890801    -0.72600
C16         C  0.07598458  0.29028272  0.31408157     0.98100
C17         C  0.20920634  0.42416268  0.43160475     0.94500
Al18       Al  0.22576722  0.36084635  0.37342721     1.55600
O19         O  0.08513139  0.32463463  0.41182830    -0.77200
C20         C  0.20118647  0.27741346  0.31598550     0.98700
C21         C  0.21220930  0.41816018  0.30927622     0.93600
O22         O  0.17812179  0.41278148  0.33268301    -0.82500
O23         O  0.33750239  0.10344739  0.17977005    -0.82000
C24         C  0.29279128  0.21562846  0.06412065     0.97400
O25         O  0.26543814  0.17884675  0.08616776    -0.71100
O26         O  0.27225489  0.10431003  0.06709345    -0.74700
Al27       Al  0.27302570  0.13506998  0.12304063     1.49000
C28         C  0.29154174  0.08002953  0.06115763     0.92600
O29         O  0.40070035  0.16897831  0.07189229    -0.80900
O30         O  0.39638237  0.23512369  0.18174118    -0.74500
Al31       Al  0.36694453  0.13808886  0.12548270     1.90100
O32         O  0.41539648  0.24024483  0.08905408    -0.73600
O33         O  0.31908043  0.23490559  0.16432664    -0.73400
O34         O  0.33582368  0.23571755  0.07125721    -0.79100
O35         O  0.26622423  0.16182062  0.17877629    -0.77300
O36         O  0.33473723  0.16815066  0.12496819    -1.13400
O37         O  0.26679183  0.08387524  0.15965884    -0.72600
C38         C  0.29434682  0.07725036  0.18436442     0.98100
C39         C  0.42443023  0.21289077  0.06650771     0.94500
Al40       Al  0.36408425  0.23102171  0.12641928     1.55600
O41         O  0.32559753  0.08716929  0.08617598    -0.77200
C42         C  0.28417670  0.20521902  0.18703978     0.98700
C43         C  0.42155686  0.21710362  0.18766781     0.93600
O44         O  0.41505982  0.18204012  0.16411133    -0.82500
C45         C  0.52960880  0.23266608  0.49819481    -0.12500
C46         C  0.03944648  0.27271550  0.47204464     0.04500
C47         C  0.01158939  0.29364320  0.97851009    -0.07800
C48         C  0.97439881  0.27358974  0.00947150    -0.08500
C49         C  0.46402153  0.23289246  0.03438581    -0.03100
C50         C  0.49256394  0.21288277  0.52926197     0.03800
N51         N  0.48592248  0.17392595  0.55703254     0.66300
H52         H  0.55078205  0.21633621  0.49462544     0.15200
H53         H  0.95308460  0.28972323  0.01363930     0.14900
N54         N  0.02015454  0.33505264  0.95396258     0.74000
O55         O  0.46768550  0.13346265  0.53924585    -0.39500
O56         O  0.50708493  0.18155092  0.59520131    -0.39400
O57         O  0.99558574  0.33135862  0.91910825    -0.40100
O58         O  0.04436097  0.37473102  0.97280605    -0.40200
C59         C  0.97931513  0.20902814  0.23380055    -0.12500
C60         C  0.46008933  0.23691519  0.22126938     0.04500
C61         C  0.48027565  0.28329277  0.23879853    -0.07800
C62         C  0.51809080  0.29981953  0.26899408    -0.08500
C63         C  0.03730791  0.27185848  0.28096835    -0.03100
C64         C  0.01788233  0.22619521  0.26256653     0.03800
N65         N  0.03937116  0.19841719  0.26898106     0.66300
H66         H  0.96511914  0.17360117  0.22009063     0.15200
H67         H  0.53307259  0.33534852  0.28266670     0.14900
N68         N  0.46495278  0.31504903  0.22469397     0.74000
O69         O  0.02430648  0.16697983  0.29987010    -0.39500
O70         O  0.06380267  0.19673640  0.23659781    -0.39400
O71         O  0.45660744  0.33717486  0.25526686    -0.40100
O72         O  0.47260151  0.33059052  0.18372752    -0.40200
C73         C  0.28050349  0.48031490  0.26720996    -0.12700
C74         C  0.23245258  0.45643082  0.27470161     0.04500
C75         C  0.20542511  0.47313745  0.25305901    -0.07800
C76         C  0.22660418  0.01268819  0.22454719    -0.08500
C77         C  0.27477417  0.03714746  0.21731639    -0.03100
C78         C  0.30196786  0.02083446  0.23957717     0.03800
N79         N  0.35136861  0.04548963  0.23570793     0.66300
H80         H  0.30195390  0.46874015  0.28469046     0.15200
H81         H  0.20478921  0.02434275  0.20800963     0.14900
N82         N  0.15632496  0.45037663  0.25952597     0.74000
O83         O  0.37535122  0.07927512  0.26280417    -0.39500
O84         O  0.37083126  0.02770026  0.21262196    -0.39400
O85         O  0.13966663  0.46915796  0.28533107    -0.40100
O86         O  0.12977291  0.41760273  0.23256214    -0.40200
C87         C  0.27076046  0.47449373  0.48780280    -0.12500
C88         C  0.23014889  0.46451381  0.46392485     0.04500
C89         C  0.21150810  0.49431990  0.47012398    -0.07800
C90         C  0.23268598  0.03220502  0.00098286    -0.08500
C91         C  0.27253600  0.04143128  0.02626482    -0.03100
C92         C  0.29186590  0.01213040  0.01889409     0.03800
N93         N  0.33280542  0.01975608  0.04256219     0.66300
H94         H  0.28593130  0.45229336  0.48293002     0.15200
H95         H  0.21754422  0.05449001  0.00516310     0.14900
N96         N  0.17272008  0.48831109  0.44342307     0.74000
O97         O  0.32905288  0.99799897  0.07984927    -0.39500
O98         O  0.37106832  0.03933372  0.02142874    -0.39400
O99         O  0.13382435  0.47290576  0.46270443    -0.40100
O100        O  0.17946720  0.50721459  0.40394876    -0.40200
C101        C  0.22890098  0.20502911  0.01247277    -0.12500
C102        C  0.27310991  0.23517707  0.03077546     0.04500
C103        C  0.29577982  0.28338484  0.51899435    -0.07800
C104        C  0.27389967  0.30026594  0.48960743    -0.08500
C105        C  0.22961495  0.27004154  0.47116512    -0.03100
C106        C  0.20711800  0.22169097  0.98295265     0.03800
N107        N  0.16222529  0.18871047  0.96529904     0.66300
H108        H  0.21083663  0.16780250  0.02106156     0.15200
H109        H  0.29206647  0.33746461  0.48098101     0.14900
N110        N  0.34024698  0.31602684  0.53770292     0.74000
O111        O  0.15894099  0.16436211  0.93022870    -0.39500
O112        O  0.12689707  0.17688437  0.99003393    -0.39400
O113        O  0.37595140  0.32968868  0.51304306    -0.40100
O114        O  0.34272803  0.33824930  0.57419206    -0.40200
C115        C  0.21670457  0.19338163  0.23547410    -0.12500
C116        C  0.26317846  0.22209471  0.22198798     0.04500
C117        C  0.28857707  0.26761774  0.24098540    -0.07800
C118        C  0.26695705  0.28464598  0.26993029    -0.08500
C119        C  0.22038530  0.25658590  0.28314547    -0.03100
C120        C  0.19547725  0.20968060  0.26664228     0.03800
N121        N  0.15005403  0.17713257  0.28320579     0.66300
H122        H  0.19686017  0.15775011  0.22236559     0.15200
H123        H  0.28771101  0.32007502  0.28329671     0.14900
N124        N  0.33761087  0.29528587  0.23550124     0.74000
O125        O  0.11719028  0.15722521  0.25452884    -0.39500
O126        O  0.14589777  0.15870230  0.32260015    -0.39400
O127        O  0.35440718  0.32940898  0.20751791    -0.40100
O128        O  0.36321996  0.29313278  0.26651840    -0.40200
O129        O  0.10132083  0.33403610  0.81900193    -0.82000
C130        C  0.20927518  0.28903417  0.93768276     0.97400
O131        O  0.17296414  0.26116802  0.91592175    -0.71100
O132        O  0.09977119  0.26916238  0.93172027    -0.74700
Al133      Al  0.13095519  0.26849523  0.87718452     1.49000
C134        C  0.07710828  0.29012010  0.93715052     0.92600
O135        O  0.16588200  0.40100430  0.92568095    -0.80900
O136        O  0.23035979  0.39312044  0.81708947    -0.74500
Al137      Al  0.13513348  0.36501906  0.87243967     1.90100
O138        O  0.23548770  0.41369570  0.90964343    -0.73600
O139        O  0.22945894  0.31444865  0.83728414    -0.73400
O140        O  0.22946451  0.33260208  0.92944774    -0.79100
O141        O  0.15816177  0.25910503  0.82291291    -0.77300
O142        O  0.16402881  0.33147473  0.87429220    -1.13400
O143        O  0.08172171  0.26204071  0.83893046    -0.72600
C144        C  0.07594479  0.29026653  0.81411346     0.98100
C145        C  0.20921006  0.42417295  0.93159162     0.94500
Al146      Al  0.22576473  0.36084946  0.87342115     1.55600
O147        O  0.08513949  0.32464034  0.91184524    -0.77200
C148        C  0.20118260  0.27741313  0.81598032     0.98700
C149        C  0.21219502  0.41815491  0.80926529     0.93600
O150        O  0.17810257  0.41276972  0.83266751    -0.82500
O151        O  0.33749778  0.10345682  0.67976768    -0.82000
C152        C  0.29278772  0.21563003  0.56411363     0.97400
O153        O  0.26543438  0.17885231  0.58616519    -0.71100
O154        O  0.27226380  0.10432603  0.56708276    -0.74700
Al155      Al  0.27302488  0.13507562  0.62303174     1.49000
C156        C  0.29155315  0.08004778  0.56114732     0.92600
O157        O  0.40070845  0.16899813  0.57190207    -0.80900
O158        O  0.39636340  0.23514183  0.68173916    -0.74500
Al159      Al  0.36694619  0.13810494  0.62548582     1.90100
O160        O  0.41539703  0.24026303  0.58905640    -0.73600
O161        O  0.31906367  0.23491046  0.66431556    -0.73400
O162        O  0.33582021  0.23571874  0.57124623    -0.79100
O163        O  0.26622137  0.16181833  0.67876895    -0.77300
O164        O  0.33473508  0.16816136  0.62496455    -1.13400
O165        O  0.26678938  0.08387655  0.65964205    -0.72600
C166        C  0.29434235  0.07725347  0.68435211     0.98100
C167        C  0.42443494  0.21290966  0.56651401     0.94500
Al168      Al  0.36407562  0.23103293  0.62641325     1.55600
O169        O  0.32560772  0.08718682  0.58616856    -0.77200
C170        C  0.28416896  0.20521567  0.68703473     0.98700
C171        C  0.42152813  0.21711487  0.68768655     0.93600
O172        O  0.41504752  0.18205741  0.66412815    -0.82500
C173        C  0.52962414  0.23267050  0.99821127    -0.12500
C174        C  0.03946043  0.27271997  0.97206184     0.04500
C175        C  0.01158163  0.29364493  0.47849746    -0.07800
C176        C  0.97440081  0.27360319  0.50947122    -0.08500
C177        C  0.46402398  0.23290800  0.53438882    -0.03100
C178        C  0.49257188  0.21287809  0.02926967     0.03800
N179        N  0.48593580  0.17392669  0.05704595     0.66300
H180        H  0.55080405  0.21634743  0.99464733     0.15200
H181        H  0.95309145  0.28974185  0.51364269     0.14900
N182        N  0.02014156  0.33504740  0.45394030     0.74000
O183        O  0.46769375  0.13345950  0.03926730    -0.39500
O184        O  0.50710745  0.18155951  0.09521003    -0.39400
O185        O  0.99557626  0.33134160  0.41907911    -0.40100
O186        O  0.04433192  0.37472869  0.47278297    -0.40200
C187        C  0.97917385  0.20897572  0.73393597    -0.12500
C188        C  0.46002800  0.23690922  0.72132088     0.04500
C189        C  0.48026226  0.28330965  0.73879603    -0.07800
C190        C  0.51807428  0.29982936  0.76899671    -0.08500
C191        C  0.03723553  0.27183026  0.78103252    -0.03100
C192        C  0.01773324  0.22612667  0.76270884     0.03800
N193        N  0.03913690  0.19827924  0.76919977     0.66300
H194        H  0.96492405  0.17352162  0.72028093     0.15200
H195        H  0.53310213  0.33538309  0.78261511     0.14900
N196        N  0.46499785  0.31509352  0.72461909     0.74000
O197        O  0.02408848  0.16696442  0.80020998    -0.39500
O198        O  0.06341106  0.19637197  0.73678255    -0.39400
O199        O  0.45661109  0.33723099  0.75514403    -0.40100
O200        O  0.47271928  0.33062763  0.68365027    -0.40200
C201        C  0.28048505  0.48029070  0.76717666    -0.12700
C202        C  0.23243769  0.45642698  0.77469113     0.04500
C203        C  0.20541737  0.47315470  0.75307034    -0.07800
C204        C  0.22660147  0.01271044  0.72455242    -0.08500
C205        C  0.27476757  0.03714771  0.71729936    -0.03100
C206        C  0.30195371  0.02081122  0.73953375     0.03800
N207        N  0.35135136  0.04543806  0.73563158     0.66300
H208        H  0.30193143  0.46869957  0.78463769     0.15200
H209        H  0.20479309  0.02438445  0.70803495     0.14900
N210        N  0.15632157  0.45041728  0.75955988     0.74000
O211        O  0.37536926  0.07920199  0.76273756    -0.39500
O212        O  0.37077628  0.02763888  0.71249951    -0.39400
O213        O  0.13969284  0.46920851  0.78539105    -0.40100
O214        O  0.12974556  0.41766310  0.73258993    -0.40200
C215        C  0.27071075  0.47443951  0.98785960    -0.12500
C216        C  0.23015321  0.46452123  0.96391207     0.04500
C217        C  0.21156340  0.49437914  0.97004859    -0.07800
C218        C  0.23262750  0.03214755  0.50105915    -0.08500
C219        C  0.27254371  0.04144663  0.52625796    -0.03100
C220        C  0.29193110  0.01220829  0.51881680     0.03800
N221        N  0.33294834  0.01992211  0.54238482     0.66300
H222        H  0.28583950  0.45219496  0.98303584     0.15200
H223        H  0.21743603  0.05438149  0.50529705     0.14900
N224        N  0.17284190  0.48843274  0.94326980     0.74000
O225        O  0.32931688  0.99818398  0.57965482    -0.39500
O226        O  0.37116569  0.03955905  0.52117024    -0.39400
O227        O  0.13391899  0.47307255  0.96247923    -0.40100
O228        O  0.17967906  0.50733987  0.90378985    -0.40200
C229        C  0.22891097  0.20501892  0.51244524    -0.12500
C230        C  0.27310681  0.23517557  0.53076917     0.04500
C231        C  0.29579692  0.28338176  0.01897682    -0.07800
C232        C  0.27391967  0.30026498  0.98958666    -0.08500
C233        C  0.22962305  0.27004849  0.97116512    -0.03100
C234        C  0.20712578  0.22167816  0.48292639     0.03800
N235        N  0.16225101  0.18868791  0.46524170     0.66300
H236        H  0.21086039  0.16778820  0.52101502     0.15200
H237        H  0.29209840  0.33745933  0.98094051     0.14900
N238        N  0.34027711  0.31601818  0.03766286     0.74000
O239        O  0.15900559  0.16437210  0.43015738    -0.39500
O240        O  0.12690468  0.17681492  0.48996292    -0.39400
O241        O  0.37596887  0.32965027  0.01299035    -0.40100
O242        O  0.34278422  0.33826702  0.07414052    -0.40200
C243        C  0.21667224  0.19340520  0.73539882    -0.12500
C244        C  0.26317453  0.22208015  0.72199391     0.04500
C245        C  0.28860712  0.26755929  0.74107621    -0.07800
C246        C  0.26699308  0.28459612  0.77002066    -0.08500
C247        C  0.22038697  0.25657749  0.78315121    -0.03100
C248        C  0.19544431  0.20970259  0.76656703     0.03800
N249        N  0.14997181  0.17717884  0.78303157     0.66300
H250        H  0.19680255  0.15780326  0.72222120     0.15200
H251        H  0.28777525  0.31999385  0.78345268     0.14900
N252        N  0.33765637  0.29515825  0.73567373     0.74000
O253        O  0.11718832  0.15726508  0.75426980    -0.39500
O254        O  0.14570293  0.15875665  0.82244879    -0.39400
O255        O  0.35455941  0.32938316  0.70781135    -0.40100
O256        O  0.36318768  0.29280142  0.76665114    -0.40200
O257        O  0.10134057  0.83404760  0.31900222    -0.82000
C258        C  0.20926503  0.78902379  0.43768894     0.97400
O259        O  0.17295122  0.76115985  0.41593113    -0.71100
O260        O  0.09975915  0.76915466  0.43171449    -0.74700
Al261      Al  0.13095198  0.76849108  0.37718604     1.49000
C262        C  0.07710000  0.79011540  0.43714733     0.92600
O263        O  0.16588075  0.90099620  0.42569609    -0.80900
O264        O  0.23036709  0.89312054  0.31710461    -0.74500
Al265      Al  0.13513854  0.86501970  0.37244789     1.90100
O266        O  0.23548722  0.91368633  0.40966034    -0.73600
O267        O  0.22946086  0.81444771  0.33729269    -0.73400
O268        O  0.22945757  0.83259161  0.42945518    -0.79100
O269        O  0.15816404  0.75910035  0.32292378    -0.77300
O270        O  0.16402975  0.83147151  0.37429986    -1.13400
O271        O  0.08173270  0.76204437  0.33891521    -0.72600
C272        C  0.07597609  0.79027962  0.31409186     0.98100
C273        C  0.20920900  0.92416245  0.43160864     0.94500
Al274      Al  0.22576537  0.86084419  0.37343325     1.55600
O275        O  0.08513407  0.82463748  0.41184356    -0.77200
C276        C  0.20118383  0.77741407  0.31598744     0.98700
C277        C  0.21220584  0.91815834  0.30928318     0.93600
O278        O  0.17811501  0.91277576  0.33268617    -0.82500
O279        O  0.33750503  0.60344824  0.17975930    -0.82000
C280        C  0.29279864  0.71564358  0.06412502     0.97400
O281        O  0.26544576  0.67886230  0.08617255    -0.71100
O282        O  0.27225997  0.60432719  0.06708950    -0.74700
Al283      Al  0.27303293  0.63508260  0.12304010     1.49000
C284        C  0.29154920  0.58005031  0.06114384     0.92600
O285        O  0.40071288  0.66899246  0.07189150    -0.80900
O286        O  0.39639240  0.73513121  0.18173975    -0.74500
Al287      Al  0.36695058  0.63809729  0.12547620     1.90100
O288        O  0.41540356  0.74025794  0.08905219    -0.73600
O289        O  0.31909020  0.73491584  0.16433135    -0.73400
O290        O  0.33583118  0.73573275  0.07126061    -0.79100
O291        O  0.26623418  0.66183064  0.17877954    -0.77300
O292        O  0.33474490  0.66816145  0.12496586    -1.13400
O293        O  0.26679578  0.58388278  0.15965257    -0.72600
C294        C  0.29434951  0.57725279  0.18435445     0.98100
C295        C  0.42443978  0.71290498  0.06650766     0.94500
Al296      Al  0.36409280  0.73103289  0.12642034     1.55600
O297        O  0.32560458  0.58718495  0.08616057    -0.77200
C298        C  0.28418610  0.70522894  0.18704394     0.98700
C299        C  0.42156441  0.71710818  0.18766552     0.93600
O300        O  0.41506309  0.68204253  0.16411023    -0.82500
C301        C  0.52964885  0.73270890  0.49824316    -0.12500
C302        C  0.03945346  0.77271512  0.47206042     0.04500
C303        C  0.01165011  0.79369751  0.97858198    -0.07800
C304        C  0.97444979  0.77363547  0.00953217    -0.08500
C305        C  0.46402918  0.73290688  0.03438624    -0.03100
C306        C  0.49261092  0.71293262  0.52931908     0.03800
N307        N  0.48602277  0.67403545  0.55715664     0.66300
H308        H  0.55086121  0.71641752  0.49471968     0.15200
H309        H  0.95317448  0.78980679  0.01374428     0.14900
N310        N  0.02028193  0.83516880  0.95411246     0.74000
O311        O  0.46785160  0.63355248  0.53942395    -0.39500
O312        O  0.50717200  0.68174245  0.59534181    -0.39400
O313        O  0.99571665  0.83157554  0.91928804    -0.40100
O314        O  0.04455788  0.87481014  0.97300356    -0.40200
C315        C  0.97930191  0.70902438  0.23381264    -0.12500
C316        C  0.46010007  0.73692007  0.22126365     0.04500
C317        C  0.48027867  0.78329330  0.23880347    -0.07800
C318        C  0.51809450  0.79981990  0.26899757    -0.08500
C319        C  0.03729786  0.77185490  0.28097898    -0.03100
C320        C  0.01786617  0.72618852  0.26258275     0.03800
N321        N  0.03934389  0.69840165  0.26900983     0.66300
H322        H  0.96510136  0.67359524  0.22010722     0.15200
H323        H  0.53306909  0.83534433  0.28268062     0.14900
N324        N  0.46494714  0.81504617  0.22471216     0.74000
O325        O  0.02427443  0.66697435  0.29990896    -0.39500
O326        O  0.06376784  0.69670161  0.23662966    -0.39400
O327        O  0.45660732  0.83716826  0.25529388    -0.40100
O328        O  0.47258649  0.83059186  0.18374721    -0.40200
C329        C  0.28049984  0.98031122  0.26721646    -0.12700
C330        C  0.23244935  0.95643025  0.27471070     0.04500
C331        C  0.20542341  0.97314195  0.25307398    -0.07800
C332        C  0.22660523  0.51268367  0.22453140    -0.08500
C333        C  0.27477595  0.53714706  0.21730422    -0.03100
C334        C  0.30197057  0.52083694  0.23956857     0.03800
N335        N  0.35137136  0.54549338  0.23569997     0.66300
H336        H  0.30194929  0.96873353  0.28469368     0.15200
H337        H  0.20478902  0.52433459  0.20798980     0.14900
N338        N  0.15632456  0.95038809  0.25954804     0.74000
O339        O  0.37535327  0.57927680  0.26279858    -0.39500
O340        O  0.37083488  0.52770713  0.21261058    -0.39400
O341        O  0.13967548  0.96917075  0.28536370    -0.40100
O342        O  0.12976480  0.91762071  0.23258208    -0.40200
C343        C  0.27068314  0.97439704  0.48791194    -0.12500
C344        C  0.23015256  0.96450896  0.46392895     0.04500
C345        C  0.21159278  0.99439727  0.47002613    -0.07800
C346        C  0.23259741  0.53212837  0.00108339    -0.08500
C347        C  0.27254054  0.54145546  0.02624729    -0.03100
C348        C  0.29195705  0.51224912  0.01876642     0.03800
N349        N  0.33300407  0.51999510  0.04229484     0.66300
H350        H  0.28578830  0.95212751  0.48311709     0.15200
H351        H  0.21738159  0.55433669  0.00535343     0.14900
N352        N  0.17290782  0.98848392  0.44320400     0.74000
O353        O  0.32941869  0.49824516  0.07954506    -0.39500
O354        O  0.37120876  0.53968017  0.02105806    -0.39400
O355        O  0.13397745  0.97317833  0.46238069    -0.40100
O356        O  0.17979278  0.00737035  0.40370977    -0.40200
C357        C  0.22891628  0.70503460  0.01246131    -0.12500
C358        C  0.27311646  0.73518950  0.03077854     0.04500
C359        C  0.29577019  0.78339105  0.51901573    -0.07800
C360        C  0.27388863  0.80026883  0.48962702    -0.08500
C361        C  0.22961414  0.77003771  0.47116652    -0.03100
C362        C  0.20713223  0.72169196  0.98293728     0.03800
N363        N  0.16225117  0.68870364  0.96526447     0.66300
H364        H  0.21086066  0.66780584  0.02104051     0.15200
H365        H  0.29204636  0.83747097  0.48101416     0.14900
N366        N  0.34022598  0.81603877  0.53774318     0.74000
O367        O  0.15899173  0.66437375  0.93018705    -0.39500
O368        O  0.12691085  0.67685094  0.98998875    -0.39400
O369        O  0.37594145  0.82972257  0.51309536    -0.40100
O370        O  0.34268409  0.83824561  0.57423677    -0.40200
C371        C  0.21671459  0.69338440  0.23548481    -0.12500
C372        C  0.26318544  0.72210383  0.22199114     0.04500
C373        C  0.28857718  0.76763189  0.24097942    -0.07800
C374        C  0.26695311  0.78465697  0.26992279    -0.08500
C375        C  0.22038468  0.75659008  0.28314555    -0.03100
C376        C  0.19548403  0.70968161  0.26665104     0.03800
N377        N  0.15006556  0.67712942  0.28322179     0.66300
H378        H  0.19687495  0.65774966  0.22238354     0.15200
H379        H  0.28770182  0.82008954  0.28328232     0.14900
N380        N  0.33760941  0.79531000  0.23548887     0.74000
O381        O  0.11719369  0.65723303  0.25455211    -0.39500
O382        O  0.14592047  0.65868456  0.32260644    -0.39400
O383        O  0.35439354  0.82942148  0.20749179    -0.40100
O384        O  0.36322591  0.79318397  0.26651458    -0.40200
O385        O  0.10131115  0.83403402  0.81900769    -0.82000
C386        C  0.20927702  0.78903590  0.93767969     0.97400
O387        O  0.17296445  0.76116969  0.91592113    -0.71100
O388        O  0.09977536  0.76916822  0.93172368    -0.74700
Al389      Al  0.13095431  0.76849755  0.87718631     1.49000
C390        C  0.07711651  0.79012926  0.93716068     0.92600
O391        O  0.16588821  0.90101748  0.92567290    -0.80900
O392        O  0.23035930  0.89312359  0.81708890    -0.74500
Al393      Al  0.13513240  0.86502257  0.87243994     1.90100
O394        O  0.23549158  0.91369459  0.90964303    -0.73600
O395        O  0.22945528  0.81445025  0.83727945    -0.73400
O396        O  0.22946613  0.83260319  0.92944324    -0.79100
O397        O  0.15815790  0.75910421  0.82291293    -0.77300
O398        O  0.16402814  0.83147752  0.87429201    -1.13400
O399        O  0.08171753  0.76204075  0.83893588    -0.72600
C400        C  0.07593596  0.79026438  0.81412050     0.98100
C401        C  0.20921600  0.92417691  0.93158639     0.94500
Al402      Al  0.22576443  0.86085060  0.87341852     1.55600
O403        O  0.08514452  0.82464880  0.91185542    -0.77200
C404        C  0.20117866  0.77741368  0.81597767     0.98700
C405        C  0.21219163  0.91815499  0.80926267     0.93600
O406        O  0.17809615  0.91276615  0.83266137    -0.82500
O407        O  0.33749753  0.60345149  0.67976108    -0.82000
C408        C  0.29279000  0.71563503  0.56411945     0.97400
O409        O  0.26543698  0.67885833  0.58617228    -0.71100
O410        O  0.27226528  0.60433439  0.56708241    -0.74700
Al411      Al  0.27302804  0.63507953  0.62303421     1.49000
C412        C  0.29155750  0.58006028  0.56113698     0.92600
O413        O  0.40071663  0.66900291  0.57190397    -0.80900
O414        O  0.39636873  0.73514263  0.68173830    -0.74500
Al415      Al  0.36694848  0.63810541  0.62548265     1.90100
O416        O  0.41539927  0.74026695  0.58905561    -0.73600
O417        O  0.31906857  0.73491261  0.66431988    -0.73400
O418        O  0.33582274  0.73572325  0.57124981    -0.79100
O419        O  0.26622755  0.66182051  0.67877482    -0.77300
O420        O  0.33473858  0.66816375  0.62496455    -1.13400
O421        O  0.26679009  0.58387620  0.65963967    -0.72600
C422        C  0.29434231  0.57724959  0.68434689     0.98100
C423        C  0.42443972  0.71291437  0.56651576     0.94500
Al424      Al  0.36407943  0.73103555  0.62641482     1.55600
O425        O  0.32561094  0.58719347  0.58615743    -0.77200
C426        C  0.28417423  0.70521808  0.68703976     0.98700
C427        C  0.42153128  0.71711319  0.68768551     0.93600
O428        O  0.41504689  0.68205319  0.66412931    -0.82500
C429        C  0.52966717  0.73272014  0.99825589    -0.12500
C430        C  0.03947213  0.77272840  0.97207588     0.04500
C431        C  0.01163560  0.79368840  0.47856914    -0.07800
C432        C  0.97444494  0.77363770  0.50953146    -0.08500
C433        C  0.46402639  0.73291269  0.53439078    -0.03100
C434        C  0.49262227  0.71293580  0.02932363     0.03800
N435        N  0.48603831  0.67404310  0.05716600     0.66300
H436        H  0.55088410  0.71643372  0.99473623     0.15200
H437        H  0.95317333  0.78981259  0.51374588     0.14900
N438        N  0.02025987  0.83515093  0.45408790     0.74000
O439        O  0.46786055  0.63355643  0.03944073    -0.39500
O440        O  0.50719724  0.68175669  0.09534606    -0.39400
O441        O  0.99569920  0.83154266  0.41925454    -0.40100
O442        O  0.04451557  0.87479608  0.47297795    -0.40200
C443        C  0.97915857  0.70896821  0.73394933    -0.12500
C444        C  0.46003420  0.73690907  0.72131597     0.04500
C445        C  0.48026411  0.78330758  0.73879567    -0.07800
C446        C  0.51807782  0.79982882  0.76899374    -0.08500
C447        C  0.03722428  0.77182573  0.78104097    -0.03100
C448        C  0.01771559  0.72611793  0.76272552     0.03800
N449        N  0.03910808  0.69826192  0.76923133     0.66300
H450        H  0.96490379  0.67351081  0.72030065     0.15200
H451        H  0.53310114  0.83537990  0.78261761     0.14900
N452        N  0.46499376  0.81508864  0.72462615     0.74000
O453        O  0.02405573  0.66695958  0.80025390    -0.39500
O454        O  0.06337366  0.69633284  0.73681770    -0.39400
O455        O  0.45660965  0.83722356  0.75515615    -0.40100
O456        O  0.47271055  0.83062575  0.68365839    -0.40200
C457        C  0.28048163  0.98028836  0.76717302    -0.12700
C458        C  0.23243479  0.95642863  0.77469072     0.04500
C459        C  0.20541676  0.97316320  0.75307732    -0.07800
C460        C  0.22660068  0.51270075  0.72454314    -0.08500
C461        C  0.27476751  0.53714272  0.71729381    -0.03100
C462        C  0.30195546  0.52081134  0.73953388     0.03800
N463        N  0.35135325  0.54544074  0.73563312     0.66300
H464        H  0.30192663  0.96869284  0.78462945     0.15200
H465        H  0.20479052  0.52436960  0.70802033     0.14900
N466        N  0.15632236  0.95043361  0.75957429     0.74000
O467        O  0.37536920  0.57920417  0.76274028    -0.39500
O468        O  0.37078046  0.52764454  0.71250016    -0.39400
O469        O  0.13970377  0.96922608  0.78541731    -0.40100
O470        O  0.12973799  0.91768729  0.73260131    -0.40200
C471        C  0.27062697  0.97433310  0.98797309    -0.12500
C472        C  0.23016022  0.96451840  0.96390877     0.04500
C473        C  0.21165990  0.99446648  0.96993511    -0.07800
C474        C  0.23254837  0.53207702  0.50114843    -0.08500
C475        C  0.27254729  0.54146510  0.52624139    -0.03100
C476        C  0.29201360  0.51231349  0.51869794     0.03800
N477        N  0.33312706  0.52013483  0.54213989     0.66300
H478        H  0.28568312  0.95201263  0.98323348     0.15200
H479        H  0.21728981  0.55424103  0.50546934     0.14900
N480        N  0.17305389  0.98862790  0.94302189     0.74000
O481        O  0.32964579  0.49839848  0.57937297    -0.39500
O482        O  0.37129257  0.53987343  0.52083434    -0.39400
O483        O  0.13409185  0.97337472  0.96211369    -0.40100
O484        O  0.18004535  0.00752140  0.90352292    -0.40200
C485        C  0.22892291  0.70501500  0.51243322    -0.12500
C486        C  0.27310842  0.73517856  0.53077468     0.04500
C487        C  0.29579351  0.78339644  0.01899149    -0.07800
C488        C  0.27391464  0.80027545  0.98959853    -0.08500
C489        C  0.22962660  0.77005216  0.97116212    -0.03100
C490        C  0.20713694  0.72167062  0.48291118     0.03800
N491        N  0.16227576  0.68867246  0.46520330     0.66300
H492        H  0.21088210  0.66778110  0.52099045     0.15200
H493        H  0.29208517  0.83747222  0.98096263     0.14900
N494        N  0.34026415  0.81603873  0.03769267     0.74000
O495        O  0.15905920  0.66437923  0.43010984    -0.39500
O496        O  0.12691523  0.67676823  0.48991202    -0.39400
O497        O  0.37596502  0.82968887  0.01303005    -0.40100
O498        O  0.34275187  0.83827622  0.07417270    -0.40200
C499        C  0.21667901  0.69340256  0.73541084    -0.12500
C500        C  0.26317799  0.72208309  0.72199714     0.04500
C501        C  0.28860411  0.76756846  0.74106760    -0.07800
C502        C  0.26698653  0.78460402  0.77000866    -0.08500
C503        C  0.22038400  0.75657942  0.78314811    -0.03100
C504        C  0.19544842  0.70970012  0.76657567     0.03800
N505        N  0.14998106  0.67717317  0.78304918     0.66300
H506        H  0.19681379  0.65779641  0.72224246     0.15200
H507        H  0.28776389  0.82000637  0.78343158     0.14900
N508        N  0.33765173  0.79517710  0.73565752     0.74000
O509        O  0.11718895  0.65726770  0.75429549    -0.39500
O510        O  0.14572429  0.65873966  0.82245837    -0.39400
O511        O  0.35454223  0.82939114  0.70778217    -0.40100
O512        O  0.36319134  0.79284549  0.76664147    -0.40200
O513        O  0.60134035  0.33404765  0.31899896    -0.82000
C514        C  0.70926718  0.28902699  0.43768605     0.97400
O515        O  0.67295290  0.26116258  0.41592923    -0.71100
O516        O  0.59976141  0.26915812  0.43171310    -0.74700
Al517      Al  0.63095304  0.26849283  0.37718433     1.49000
C518        C  0.57710216  0.29011883  0.43714559     0.92600
O519        O  0.66588223  0.40099875  0.42569097    -0.80900
O520        O  0.73036726  0.39312145  0.31709950    -0.74500
Al521      Al  0.63513926  0.36502117  0.37244377     1.90100
O522        O  0.73548864  0.41368841  0.40965522    -0.73600
O523        O  0.72946107  0.31444865  0.33728873    -0.73400
O524        O  0.72945983  0.33259452  0.42945092    -0.79100
O525        O  0.65816412  0.25910033  0.32292206    -0.77300
O526        O  0.66403071  0.33147317  0.37429631    -1.13400
O527        O  0.58173297  0.26204513  0.33891424    -0.72600
C528        C  0.57597550  0.29027947  0.31409033     0.98100
C529        C  0.70921046  0.42416446  0.43160366     0.94500
Al530      Al  0.72576635  0.36084590  0.37342863     1.55600
O531        O  0.58513537  0.32463990  0.41184066    -0.77200
C532        C  0.70118384  0.27741389  0.31598510     0.98700
C533        C  0.71220589  0.41815913  0.30927794     0.93600
O534        O  0.67811504  0.41277645  0.33268094    -0.82500
O535        O  0.83750416  0.10344501  0.17976117    -0.82000
C536        C  0.79279657  0.21563864  0.06412591     0.97400
O537        O  0.76544377  0.17885755  0.08617376    -0.71100
O538        O  0.77225891  0.10432297  0.06709099    -0.74700
Al539      Al  0.77303150  0.13507815  0.12304139     1.49000
C540        C  0.79154819  0.08004614  0.06114537     0.92600
O541        O  0.90071139  0.16898796  0.07189280    -0.80900
O542        O  0.89639050  0.23512770  0.18174005    -0.74500
Al543      Al  0.86694933  0.13809332  0.12547773     1.90100
O544        O  0.91540164  0.24025348  0.08905273    -0.73600
O545        O  0.81908828  0.23491154  0.16433162    -0.73400
O546        O  0.83582914  0.23572752  0.07126090    -0.79100
O547        O  0.76623284  0.16182624  0.17878076    -0.77300
O548        O  0.83474340  0.16815722  0.12496694    -1.13400
O549        O  0.76679477  0.08387860  0.15965404    -0.72600
C550        C  0.79434870  0.07724946  0.18435649     0.98100
C551        C  0.92443800  0.21290043  0.06650856     0.94500
Al552      Al  0.86409092  0.23102857  0.12642072     1.55600
O553        O  0.82560329  0.08718047  0.08616243    -0.77200
C554        C  0.78418468  0.20522461  0.18704480     0.98700
C555        C  0.92156264  0.21710493  0.18766626     0.93600
O556        O  0.91506176  0.18203918  0.16411139    -0.82500
C557        C  0.02965107  0.23271302  0.49824217    -0.12500
C558        C  0.53945635  0.27271940  0.47205950     0.04500
C559        C  0.51164682  0.29369200  0.97858216    -0.07800
C560        C  0.47444653  0.27362969  0.00953227    -0.08500
C561        C  0.96402722  0.23290226  0.03438705    -0.03100
C562        C  0.99261335  0.21293718  0.52931833     0.03800
N563        N  0.98602485  0.17403978  0.55715572     0.66300
H564        H  0.05086279  0.21642088  0.49471817     0.15200
H565        H  0.45317030  0.28980011  0.01374357     0.14900
N566        N  0.52027710  0.33516211  0.95411134     0.74000
O567        O  0.96785317  0.13355683  0.53942292    -0.39500
O568        O  0.00717448  0.18174651  0.59534062    -0.39400
O569        O  0.49571229  0.33156677  0.91928582    -0.40100
O570        O  0.54455045  0.37480400  0.97300222    -0.40200
C571        C  0.47929696  0.20902054  0.23381708    -0.12500
C572        C  0.96009794  0.23691735  0.22126448     0.04500
C573        C  0.98027841  0.28329196  0.23880085    -0.07800
C574        C  0.01809466  0.29981944  0.26899451    -0.08500
C575        C  0.53729600  0.27185349  0.28097884    -0.03100
C576        C  0.51786157  0.22618518  0.26258660     0.03800
N577        N  0.53933675  0.19839635  0.26901690     0.66300
H578        H  0.46509434  0.17358994  0.22011457     0.15200
H579        H  0.03307086  0.33534503  0.28267463     0.14900
N580        N  0.96494859  0.31504523  0.22470591     0.74000
O581        O  0.52426865  0.16697424  0.29992117    -0.39500
O582        O  0.56375482  0.19668775  0.23663548    -0.39400
O583        O  0.95660678  0.33716797  0.25528521    -0.40100
O584        O  0.97259061  0.33058997  0.18374062    -0.40200
C585        C  0.78050002  0.48031227  0.26721142    -0.12700
C586        C  0.73244949  0.45643130  0.27470558     0.04500
C587        C  0.70542378  0.47314361  0.25306945    -0.07800
C588        C  0.72660487  0.01268208  0.22453534    -0.08500
C589        C  0.77477549  0.03714471  0.21730732    -0.03100
C590        C  0.80197018  0.02083488  0.23957195     0.03800
N591        N  0.85137092  0.04549077  0.23570250     0.66300
H592        H  0.80194929  0.46873415  0.28468813     0.15200
H593        H  0.70478886  0.02433283  0.20799381     0.14900
N594        N  0.65632493  0.45038987  0.25954346     0.74000
O595        O  0.87535353  0.07927491  0.26280011    -0.39500
O596        O  0.87083370  0.02770335  0.21261374    -0.39400
O597        O  0.63967603  0.46917187  0.28536025    -0.40100
O598        O  0.62976508  0.41762356  0.23257655    -0.40200
C599        C  0.77068026  0.47439277  0.48791313    -0.12500
C600        C  0.73015382  0.46450982  0.46392499     0.04500
C601        C  0.71159729  0.49440127  0.47001899    -0.07800
C602        C  0.73260146  0.03213058  0.00107870    -0.08500
C603        C  0.77254015  0.04145225  0.02624790    -0.03100
C604        C  0.79195300  0.01224208  0.01877060     0.03800
N605        N  0.83299479  0.01998170  0.04230550     0.66300
H606        H  0.78578266  0.45212052  0.48312078     0.15200
H607        H  0.71738874  0.05434203  0.00534582     0.14900
N608        N  0.67291747  0.48849324  0.44319122     0.74000
O609        O  0.82940118  0.99822947  0.07955622    -0.39500
O610        O  0.87120257  0.03966322  0.02107419    -0.39400
O611        O  0.63398483  0.47318984  0.46236231    -0.40100
O612        O  0.67980953  0.50738196  0.40369758    -0.40200
C613        C  0.72891406  0.20503066  0.01246292    -0.12500
C614        C  0.77311440  0.23518504  0.03078004     0.04500
C615        C  0.79577300  0.28339564  0.51901319    -0.07800
C616        C  0.77389143  0.30027293  0.48962383    -0.08500
C617        C  0.72961655  0.27004165  0.47116421    -0.03100
C618        C  0.70713021  0.22168869  0.98293944     0.03800
N619        N  0.66224907  0.18870087  0.96526642     0.66300
H620        H  0.71085822  0.16780176  0.02104173     0.15200
H621        H  0.79204936  0.33747478  0.48100986     0.14900
N622        N  0.84022908  0.31604357  0.53773989     0.74000
O623        O  0.65898946  0.16437140  0.93018859    -0.39500
O624        O  0.62690880  0.17684801  0.98999083    -0.39400
O625        O  0.87594423  0.32972651  0.51309176    -0.40100
O626        O  0.84268774  0.33825157  0.57423279    -0.40200
C627        C  0.71671266  0.19338220  0.23548322    -0.12500
C628        C  0.76318451  0.22209965  0.22199218     0.04500
C629        C  0.78857787  0.26762647  0.24098267    -0.07800
C630        C  0.76695427  0.28465293  0.26992495    -0.08500
C631        C  0.72038454  0.25658829  0.28314475    -0.03100
C632        C  0.69548237  0.20968038  0.26664867     0.03800
N633        N  0.65006222  0.17712965  0.28321656     0.66300
H634        H  0.69687181  0.15774810  0.22238020     0.15200
H635        H  0.78770439  0.32008480  0.28328608     0.14900
N636        N  0.83761074  0.29530138  0.23549524     0.74000
O637        O  0.61719304  0.15723196  0.25454416    -0.39500
O638        O  0.64591336  0.15868644  0.32260272    -0.39400
O639        O  0.85439938  0.32941694  0.20750298    -0.40100
O640        O  0.86322408  0.29316667  0.26651911    -0.40200
O641        O  0.60131129  0.33403352  0.81901099    -0.82000
C642        C  0.70927573  0.28903353  0.93768287     0.97400
O643        O  0.67296389  0.26116764  0.91592308    -0.71100
O644        O  0.59977399  0.26916493  0.93172523    -0.74700
Al645      Al  0.63095418  0.26849607  0.87718810     1.49000
C646        C  0.57711511  0.29012590  0.93716265     0.92600
O647        O  0.66588696  0.40101506  0.92567777    -0.80900
O648        O  0.73035957  0.39312292  0.81709378    -0.74500
Al649      Al  0.63513193  0.36502100  0.87244395     1.90100
O650        O  0.73549052  0.41369321  0.90964776    -0.73600
O651        O  0.72945612  0.31444972  0.83728382    -0.73400
O652        O  0.72946459  0.33260112  0.92944780    -0.79100
O653        O  0.65815900  0.25910462  0.82291466    -0.77300
O654        O  0.66402777  0.33147609  0.87429550    -1.13400
O655        O  0.58171784  0.26203986  0.83893723    -0.72600
C656        C  0.57593626  0.29026399  0.81412270     0.98100
C657        C  0.70921476  0.42417545  0.93159095     0.94500
Al658      Al  0.72576408  0.36084941  0.87342313     1.55600
O659        O  0.58514373  0.32464629  0.91185846    -0.77200
C660        C  0.70117994  0.27741403  0.81598054     0.98700
C661        C  0.71219182  0.41815427  0.80926767     0.93600
O662        O  0.67809620  0.41276526  0.83266628    -0.82500
O663        O  0.83749859  0.10345447  0.67975909    -0.82000
C664        C  0.79279254  0.21564020  0.56411871     0.97400
O665        O  0.76543945  0.17886326  0.58617116    -0.71100
O666        O  0.77226723  0.10433905  0.56708051    -0.74700
Al667      Al  0.77303002  0.13508397  0.62303265     1.49000
C668        C  0.79155930  0.08006477  0.56113513     0.92600
O669        O  0.90071926  0.16900788  0.57190316    -0.80900
O670        O  0.89637082  0.23514634  0.68173799    -0.74500
Al671      Al  0.86695032  0.13810950  0.62548127     1.90100
O672        O  0.91540172  0.24027175  0.58905519    -0.73600
O673        O  0.81907075  0.23491670  0.66431993    -0.73400
O674        O  0.83582522  0.23572858  0.57124957    -0.79100
O675        O  0.76622938  0.16182442  0.67877353    -0.77300
O676        O  0.83474062  0.16816806  0.62496344    -1.13400
O677        O  0.76679144  0.08388004  0.65963752    -0.72600
C678        C  0.79434328  0.07725259  0.68434443     0.98100
C679        C  0.92444241  0.21291938  0.56651526     0.94500
Al680      Al  0.86408169  0.23103997  0.62641450     1.55600
O681        O  0.82561307  0.08719829  0.58615522    -0.77200
C682        C  0.78417624  0.20522182  0.68703940     0.98700
C683        C  0.92153279  0.21711628  0.68768544     0.93600
O684        O  0.91504834  0.18205647  0.66412887    -0.82500
C685        C  0.02966637  0.23271694  0.99825792    -0.12500
C686        C  0.53947015  0.27272418  0.97207722     0.04500
C687        C  0.51163962  0.29369381  0.47856937    -0.07800
C688        C  0.47444901  0.27364329  0.50953180    -0.08500
C689        C  0.96402940  0.23291788  0.53439049    -0.03100
C690        C  0.99262133  0.21293224  0.02932547     0.03800
N691        N  0.98603822  0.17404035  0.05716870     0.66300
H692        H  0.05088439  0.21643149  0.99473919     0.15200
H693        H  0.45317806  0.28981902  0.51374699     0.14900
N694        N  0.52026536  0.33515754  0.45408953     0.74000
O695        O  0.96786132  0.13355342  0.03944416    -0.39500
O696        O  0.00719694  0.18175505  0.09534899    -0.39400
O697        O  0.49570380  0.33155141  0.41925765    -0.40100
O698        O  0.54452388  0.37480209  0.47297978    -0.40200
C699        C  0.47915933  0.20896981  0.73394976    -0.12500
C700        C  0.96003506  0.23691108  0.72131678     0.04500
C701        C  0.98026542  0.28330940  0.73879708    -0.07800
C702        C  0.01807873  0.29982972  0.76899564    -0.08500
C703        C  0.53722478  0.27182610  0.78104284    -0.03100
C704        C  0.51771588  0.22611860  0.76272657     0.03800
N705        N  0.53910768  0.19826193  0.76923226     0.66300
H706        H  0.46490449  0.17351268  0.72030044     0.15200
H707        H  0.03310245  0.33538065  0.78261973     0.14900
N708        N  0.96499598  0.31509123  0.72462771     0.74000
O709        O  0.52405459  0.16695917  0.80025443    -0.39500
O710        O  0.56337331  0.19633277  0.73681871    -0.39400
O711        O  0.95661181  0.33722601  0.75515782    -0.40100
O712        O  0.97271354  0.33062892  0.68366017    -0.40200
C713        C  0.78048149  0.48028692  0.76717696    -0.12700
C714        C  0.73243479  0.45642781  0.77469566     0.04500
C715        C  0.70541668  0.47316253  0.75308274    -0.07800
C716        C  0.72660097  0.01270262  0.72453914    -0.08500
C717        C  0.77476794  0.03714480  0.71729040    -0.03100
C718        C  0.80195556  0.02081283  0.73953010     0.03800
N719        N  0.85135338  0.04544216  0.73562973     0.66300
H720        H  0.80192649  0.46869135  0.78463296     0.15200
H721        H  0.70479105  0.02437174  0.70801650     0.14900
N722        N  0.65632246  0.45043361  0.75958078     0.74000
O723        O  0.87536918  0.07920505  0.76273751    -0.39500
O724        O  0.87078067  0.02764631  0.71249637    -0.39400
O725        O  0.63970478  0.46922712  0.78542361    -0.40100
O726        O  0.62973723  0.41768655  0.73260893    -0.40200
C727        C  0.77063180  0.47434050  0.98796895    -0.12500
C728        C  0.73015896  0.46451833  0.96391217     0.04500
C729        C  0.71165320  0.49446112  0.96994396    -0.07800
C730        C  0.73254471  0.03207509  0.50115321    -0.08500
C731        C  0.77254812  0.04146840  0.52624071    -0.03100
C732        C  0.79201758  0.01232013  0.51869395     0.03800
N733        N  0.83313594  0.02014727  0.54212970     0.66300
H734        H  0.78569247  0.45202478  0.98322501     0.15200
H735        H  0.71728342  0.05423609  0.50547695     0.14900
N736        N  0.67304002  0.48861517  0.94303859     0.74000
O737        O  0.82966235  0.99841399  0.57936294    -0.39500
O738        O  0.87129822  0.03988770  0.52081848    -0.39400
O739        O  0.63408086  0.47335790  0.96213794    -0.40100
O740        O  0.68002175  0.50750657  0.90353930    -0.40200
C741        C  0.72892506  0.20501979  0.51243284    -0.12500
C742        C  0.77311094  0.23518345  0.53077351     0.04500
C743        C  0.79579176  0.28339215  0.01899361    -0.07800
C744        C  0.77391302  0.30027185  0.98960138    -0.08500
C745        C  0.72962490  0.27004908  0.97116494    -0.03100
C746        C  0.70713898  0.22167494  0.48291042     0.03800
N747        N  0.66227714  0.18867671  0.46520397     0.66300
H748        H  0.71088391  0.16778612  0.52099112     0.15200
H749        H  0.79208384  0.33746874  0.98096590     0.14900
N750        N  0.84026269  0.31603388  0.03769460     0.74000
O751        O  0.65905917  0.16438180  0.43011144    -0.39500
O752        O  0.62691731  0.17677442  0.48991318    -0.39400
O753        O  0.87596336  0.32968342  0.01303181    -0.40100
O754        O  0.84275104  0.33827136  0.07417483    -0.40200
C755        C  0.71668095  0.19340525  0.73541095    -0.12500
C756        C  0.76317999  0.22208614  0.72199755     0.04500
C757        C  0.78860614  0.26757089  0.74106941    -0.07800
C758        C  0.76698851  0.28460567  0.77001153    -0.08500
C759        C  0.72038583  0.25658072  0.78315045    -0.03100
C760        C  0.69545033  0.20970195  0.76657671     0.03800
N761        N  0.64998298  0.17717451  0.78304988     0.66300
H762        H  0.69681577  0.15779958  0.72224167     0.15200
H763        H  0.78776573  0.32000744  0.78343549     0.14900
N764        N  0.83765380  0.29517957  0.73565962     0.74000
O765        O  0.61719076  0.15727022  0.75429615    -0.39500
O766        O  0.64572625  0.15873962  0.82245833    -0.39400
O767        O  0.85454448  0.32939404  0.70778478    -0.40100
O768        O  0.86319326  0.29284736  0.76664336    -0.40200
O769        O  0.60135016  0.83405088  0.31899381    -0.82000
C770        C  0.70926449  0.78902520  0.43768967     0.97400
O771        O  0.67295155  0.76116092  0.41593057    -0.71100
O772        O  0.59975630  0.76915252  0.43170980    -0.74700
Al773      Al  0.63095317  0.76849083  0.37718294     1.49000
C774        C  0.57709315  0.79011004  0.43713560     0.92600
O775        O  0.66587612  0.90098613  0.42569982    -0.80900
O776        O  0.73036732  0.89311846  0.31710063    -0.74500
Al777      Al  0.63514027  0.86501841  0.37244422     1.90100
O778        O  0.73548466  0.91368959  0.40965615    -0.73600
O779        O  0.72946396  0.81444727  0.33729366    -0.73400
O780        O  0.72945765  0.83259332  0.42945571    -0.79100
O781        O  0.65816709  0.75910137  0.32292271    -0.77300
O782        O  0.66403094  0.83147075  0.37429708    -1.13400
O783        O  0.58173693  0.76204584  0.33890860    -0.72600
C784        C  0.57598499  0.79028284  0.31408289     0.98100
C785        C  0.70920469  0.92416086  0.43160946     0.94500
Al786      Al  0.72576618  0.86084486  0.37343172     1.55600
O787        O  0.58513001  0.82463219  0.41183101    -0.77200
C788        C  0.70118674  0.77741387  0.31598782     0.98700
C789        C  0.71220919  0.91815952  0.30928124     0.93600
O790        O  0.67812161  0.91278084  0.33268796    -0.82500
O791        O  0.83750359  0.60345079  0.17976795    -0.82000
C792        C  0.79279377  0.71563404  0.06412007     0.97400
O793        O  0.76544053  0.67885210  0.08616682    -0.71100
O794        O  0.77225629  0.60431492  0.06709186    -0.74700
Al795      Al  0.77302753  0.63507490  0.12303937     1.49000
C796        C  0.79154301  0.58003432  0.06115583     0.92600
O797        O  0.90070206  0.66898317  0.07189079    -0.80900
O798        O  0.89638482  0.73512738  0.18174089    -0.74500
Al799      Al  0.86694608  0.63809311  0.12548096     1.90100
O800        O  0.91539874  0.74024968  0.08905349    -0.73600
O801        O  0.81908295  0.73491023  0.16432685    -0.73400
O802        O  0.83582611  0.73572342  0.07125726    -0.79100
O803        O  0.76622607  0.66182529  0.17877524    -0.77300
O804        O  0.83473912  0.66815528  0.12496712    -1.13400
O805        O  0.76679319  0.58387973  0.15965719    -0.72600
C806        C  0.79434794  0.57725391  0.18436216     0.98100
C807        C  0.92443225  0.71289568  0.06650666     0.94500
Al808      Al  0.86408660  0.73102641  0.12641908     1.55600
O809        O  0.82559902  0.58717420  0.08617384    -0.77200
C810        C  0.78417871  0.70522360  0.18703933     0.98700
C811        C  0.92155917  0.71710700  0.18766692     0.93600
O812        O  0.91506159  0.68204361  0.16410995    -0.82500
C813        C  0.02960659  0.73266225  0.49819623    -0.12500
C814        C  0.53944361  0.77271105  0.47204533     0.04500
C815        C  0.51159266  0.79364863  0.97851036    -0.07800
C816        C  0.47440197  0.77359538  0.00947179    -0.08500
C817        C  0.96402368  0.73289740  0.03438480    -0.03100
C818        C  0.99256143  0.71287854  0.52926305     0.03800
N819        N  0.98592032  0.67392204  0.55703396     0.66300
H820        H  0.05078050  0.71633323  0.49462760     0.15200
H821        H  0.45308889  0.78972978  0.01364054     0.14900
N822        N  0.52015961  0.83505955  0.95396457     0.74000
O823        O  0.96768396  0.63345868  0.53924749    -0.39500
O824        O  0.00708229  0.68154742  0.59520306    -0.39400
O825        O  0.49559031  0.83136808  0.91911151    -0.40100
O826        O  0.54436873  0.87473714  0.97280866    -0.40200
C827        C  0.47931933  0.70903181  0.23379653    -0.12500
C828        C  0.96009208  0.73691804  0.22126830     0.04500
C829        C  0.98027638  0.78329418  0.23880101    -0.07800
C830        C  0.01809101  0.79982009  0.26899716    -0.08500
C831        C  0.53730938  0.77185980  0.28096851    -0.03100
C832        C  0.51788625  0.72619831  0.26256295     0.03800
N833        N  0.53937741  0.69842208  0.26897430     0.66300
H834        H  0.46512517  0.67360604  0.22008381     0.15200
H835        H  0.03307096  0.83534765  0.28267276     0.14900
N836        N  0.96495181  0.81505004  0.22470000     0.74000
O837        O  0.52431185  0.66698021  0.29985887    -0.39500
O838        O  0.56381373  0.69674873  0.23659183    -0.39400
O839        O  0.95660801  0.83717492  0.25527525    -0.40100
O840        O  0.97259825  0.83059274  0.18373398    -0.40200
C841        C  0.78050329  0.98031351  0.26721434    -0.12700
C842        C  0.73245243  0.95643000  0.27470654     0.04500
C843        C  0.70542497  0.97313656  0.25306388    -0.07800
C844        C  0.72660481  0.51269058  0.22454352    -0.08500
C845        C  0.77477489  0.53715001  0.21731308    -0.03100
C846        C  0.80196829  0.52083622  0.23957306     0.03800
N847        N  0.85136906  0.54549137  0.23570411     0.66300
H848        H  0.80195349  0.96873891  0.28469472     0.15200
H849        H  0.70479006  0.52434561  0.20800649     0.14900
N850        N  0.65632492  0.95037628  0.25953147     0.74000
O851        O  0.87535157  0.57927633  0.26280092    -0.39500
O852        O  0.87083178  0.52770248  0.21261752    -0.39400
O853        O  0.63966720  0.96915861  0.28533600    -0.40100
O854        O  0.62977233  0.91760165  0.23256859    -0.40200
C855        C  0.77076328  0.97449838  0.48780111    -0.12500
C856        C  0.73014739  0.96451318  0.46392852     0.04500
C857        C  0.71150323  0.99431598  0.47013099    -0.07800
C858        C  0.73268018  0.53220157  0.00098960    -0.08500
C859        C  0.77253651  0.54143516  0.02626393    -0.03100
C860        C  0.79187175  0.51213993  0.01888747     0.03800
N861        N  0.83281874  0.51977438  0.04254623     0.66300
H862        H  0.78593687  0.95230104  0.48292574     0.15200
H863        H  0.71753397  0.55448191  0.00517447     0.14900
N864        N  0.67270988  0.98830163  0.44343596     0.74000
O865        O  0.82907784  0.49801999  0.07983230    -0.39500
O866        O  0.87107727  0.53935726  0.02140497    -0.39400
O867        O  0.63381642  0.97289357  0.46272302    -0.40100
O868        O  0.67944967  0.00720314  0.40396126    -0.40200
C869        C  0.72890375  0.70503354  0.01247121    -0.12500
C870        C  0.77311238  0.73518212  0.03077424     0.04500
C871        C  0.79577658  0.78338044  0.51899718    -0.07800
C872        C  0.77389653  0.80026200  0.48961082    -0.08500
C873        C  0.72961212  0.77003795  0.47116781    -0.03100
C874        C  0.70712052  0.72169461  0.98295050     0.03800
N875        N  0.66222813  0.68871345  0.96529672     0.66300
H876        H  0.71083974  0.66780694  0.02106024     0.15200
H877        H  0.79206342  0.83746109  0.48098520     0.14900
N878        N  0.84024353  0.81602214  0.53770638     0.74000
O879        O  0.65894449  0.66436481  0.93022684    -0.39500
O880        O  0.62689960  0.67688720  0.99003115    -0.39400
O881        O  0.87594822  0.82968439  0.51304685    -0.40100
O882        O  0.84272420  0.83824391  0.57419591    -0.40200
C883        C  0.71670678  0.69338432  0.23547531    -0.12500
C884        C  0.76317998  0.72209893  0.22198750     0.04500
C885        C  0.78857733  0.76762271  0.24098372    -0.07800
C886        C  0.76695678  0.78464963  0.26992954    -0.08500
C887        C  0.72038593  0.75658782  0.28314659    -0.03100
C888        C  0.69547909  0.70968227  0.26664414     0.03800
N889        N  0.65005703  0.67713303  0.28320949     0.66300
H890        H  0.69686323  0.65775231  0.22236773     0.15200
H891        H  0.78770971  0.82007919  0.28329517     0.14900
N892        N  0.83761070  0.79529318  0.23549765     0.74000
O893        O  0.61719130  0.65722737  0.25453442    -0.39500
O894        O  0.64590340  0.65870074  0.32260232    -0.39400
O895        O  0.85440389  0.82941323  0.20751071    -0.40100
O896        O  0.86322180  0.79314674  0.26651669    -0.40200
O897        O  0.60132082  0.83403681  0.81899890    -0.82000
C898        C  0.70927665  0.78903691  0.93767986     0.97400
O899        O  0.67296483  0.76117038  0.91592017    -0.71100
O900        O  0.59977254  0.76916569  0.93171894    -0.74700
Al901      Al  0.63095542  0.76849685  0.87718300     1.49000
C902        C  0.57710955  0.79012337  0.93714877     0.92600
O903        O  0.66588302  0.90100651  0.92567663    -0.80900
O904        O  0.73035926  0.89312117  0.81708469    -0.74500
Al905      Al  0.63513387  0.86502067  0.87243605     1.90100
O906        O  0.73548861  0.91369738  0.90963878    -0.73600
O907        O  0.72945824  0.81444944  0.83728009    -0.73400
O908        O  0.72946618  0.83260453  0.92944342    -0.79100
O909        O  0.65816086  0.75910478  0.82291154    -0.77300
O910        O  0.66402917  0.83147628  0.87428898    -1.13400
O911        O  0.58172156  0.76204174  0.83892921    -0.72600
C912        C  0.57594476  0.79026712  0.81411136     0.98100
C913        C  0.70921109  0.92417450  0.93158736     0.94500
Al914      Al  0.72576506  0.86085090  0.87341672     1.55600
O915        O  0.58514008  0.82464272  0.91184240    -0.77200
C916        C  0.70118152  0.77741293  0.81597789     0.98700
C917        C  0.71219466  0.91815581  0.80926059     0.93600
O918        O  0.67810250  0.91277090  0.83266313    -0.82500
O919        O  0.83749645  0.60345373  0.67976945    -0.82000
C920        C  0.79278464  0.71562498  0.56411471     0.97400
O921        O  0.76543143  0.67884742  0.58616659    -0.71100
O922        O  0.77226149  0.60432150  0.56708457    -0.74700
Al923      Al  0.77302254  0.63507114  0.62303336     1.49000
C924        C  0.79155104  0.58004349  0.56114894     0.92600
O925        O  0.90070556  0.66899337  0.57190279    -0.80900
O926        O  0.89636104  0.73513813  0.68173942    -0.74500
Al927      Al  0.86694406  0.63810090  0.62548705     1.90100
O928        O  0.91539418  0.74025837  0.58905674    -0.73600
O929        O  0.81906114  0.73490622  0.66431582    -0.73400
O930        O  0.83581720  0.73571348  0.57124667    -0.79100
O931        O  0.76621926  0.66181422  0.67877044    -0.77300
O932        O  0.83473271  0.66815706  0.62496566    -1.13400
O933        O  0.76678773  0.58387257  0.65964405    -0.72600
C934        C  0.79434111  0.57725033  0.68435438     0.98100
C935        C  0.92443195  0.71290486  0.56651445     0.94500
Al936      Al  0.86407298  0.73102853  0.62641364     1.55600
O937        O  0.82560532  0.58718218  0.58617049    -0.77200
C938        C  0.78416670  0.70521168  0.68703547     0.98700
C939        C  0.92152626  0.71711172  0.68768660     0.93600
O940        O  0.91504574  0.68205410  0.66412855    -0.82500
C941        C  0.02962517  0.73267403  0.99820920    -0.12500
C942        C  0.53946226  0.77272402  0.97206072     0.04500
C943        C  0.51157774  0.79363943  0.47849729    -0.07800
C944        C  0.47439695  0.77359745  0.50947099    -0.08500
C945        C  0.96402078  0.73290305  0.53438917    -0.03100
C946        C  0.99257307  0.71288203  0.02926779     0.03800
N947        N  0.98593617  0.67392989  0.05704332     0.66300
H948        H  0.05080411  0.71635001  0.99464446     0.15200
H949        H  0.45308697  0.78973536  0.51364193     0.14900
N950        N  0.52013629  0.83504087  0.45393901     0.74000
O951        O  0.96769316  0.63346291  0.03926406    -0.39500
O952        O  0.00710814  0.68156170  0.09520710    -0.39400
O953        O  0.49557192  0.83133319  0.41907641    -0.40100
O954        O  0.54432382  0.87472261  0.47278172    -0.40200
C955        C  0.47917416  0.70897467  0.73393483    -0.12500
C956        C  0.96002666  0.73690702  0.72132018     0.04500
C957        C  0.98026091  0.78330786  0.73879422    -0.07800
C958        C  0.01807336  0.79982849  0.76899440    -0.08500
C959        C  0.53723551  0.77183019  0.78103054    -0.03100
C960        C  0.51773404  0.72612664  0.76270704     0.03800
N961        N  0.53913908  0.69828043  0.76919744     0.66300
H962        H  0.46492484  0.67352044  0.72027996     0.15200
H963        H  0.03310116  0.83538250  0.78261206     0.14900
N964        N  0.96499609  0.81509117  0.72461651     0.74000
O965        O  0.52409134  0.66696507  0.80020711    -0.39500
O966        O  0.56341431  0.69637494  0.73678029    -0.39400
O967        O  0.95660884  0.83722874  0.75514092    -0.40100
O968        O  0.97271757  0.83062480  0.68364751    -0.40200
C969        C  0.78048486  0.98029170  0.76717224    -0.12700
C970        C  0.73243744  0.95642797  0.77468642     0.04500
C971        C  0.70541734  0.97315602  0.75306573    -0.07800
C972        C  0.72660105  0.51270915  0.72455706    -0.08500
C973        C  0.77476692  0.53714557  0.71730268    -0.03100
C974        C  0.80195326  0.52080917  0.73953681     0.03800
N975        N  0.85135080  0.54543532  0.73563325     0.66300
H976        H  0.80193101  0.96870033  0.78463307     0.15200
H977        H  0.70479266  0.52438320  0.70804000     0.14900
N978        N  0.65632147  0.95041847  0.75955482     0.74000
O979        O  0.87536981  0.57919970  0.76273836    -0.39500
O980        O  0.87077462  0.52763514  0.71250094    -0.39400
O981        O  0.63969244  0.96920944  0.78538593    -0.40100
O982        O  0.62974575  0.91766454  0.73258448    -0.40200
C983        C  0.77070751  0.97443431  0.98786165    -0.12500
C984        C  0.73015427  0.96452154  0.96390889     0.04500
C985        C  0.71156819  0.99438303  0.97004204    -0.07800
C986        C  0.73263075  0.53214965  0.50105424    -0.08500
C987        C  0.77254261  0.54144358  0.52625833    -0.03100
C988        C  0.79192700  0.51220208  0.51882030     0.03800
N989        N  0.83293947  0.51991025  0.54239432     0.66300
H990        H  0.78583309  0.95218651  0.98304060     0.15200
H991        H  0.71744205  0.55438624  0.50528942     0.14900
N992        N  0.67285171  0.98844204  0.94325787     0.74000
O993        O  0.82930053  0.49816916  0.57966414    -0.39500
O994        O  0.87115991  0.53954538  0.52118525    -0.39400
O995        O  0.63392676  0.97308462  0.96246206    -0.40100
O996        O  0.67969575  0.00735108  0.90377832    -0.40200
C997        C  0.72890802  0.70501457  0.51244645    -0.12500
C998        C  0.77310366  0.73517088  0.53077086     0.04500
C999        C  0.79579892  0.78338667  0.01897510    -0.07800
C1000       C  0.77392143  0.80026909  0.98958425    -0.08500
C1001       C  0.72962502  0.77005201  0.97116256    -0.03100
C1002       C  0.70712297  0.72167427  0.48292800     0.03800
N1003       N  0.66224851  0.68868430  0.46524245     0.66300
H1004       H  0.71085741  0.66778340  0.52101554     0.15200
H1005       H  0.79209981  0.83746349  0.98093777     0.14900
N1006       N  0.84027877  0.81602371  0.03766138     0.74000
O1007       O  0.65900374  0.66436933  0.43015766    -0.39500
O1008       O  0.62690181  0.67681048  0.48996334    -0.39400
O1009       O  0.87597081  0.82965614  0.01298920    -0.40100
O1010       O  0.84278517  0.83827291  0.07413854    -0.40200
C1011       C  0.71667015  0.69340232  0.73539928    -0.12500
C1012       C  0.76317247  0.72207678  0.72199417     0.04500
C1013       C  0.78860528  0.76755634  0.74107540    -0.07800
C1014       C  0.76699145  0.78459422  0.77001874    -0.08500
C1015       C  0.72038534  0.75657613  0.78314955    -0.03100
C1016       C  0.69544246  0.70970071  0.76656670     0.03800
N1017       N  0.64997004  0.67717748  0.78303190     0.66300
H1018       H  0.69680038  0.65780013  0.72222254     0.15200
H1019       H  0.78777382  0.81999222  0.78344982     0.14900
N1020       N  0.83765460  0.79515477  0.73567312     0.74000
O1021       O  0.61718645  0.65726231  0.75427044    -0.39500
O1022       O  0.64570142  0.65875703  0.82245000    -0.39400
O1023       O  0.85455815  0.82937974  0.70781082    -0.40100
O1024       O  0.86318555  0.79279740  0.76665059    -0.40200
loop_ 
_geom_bond_atom_site_label_1 
_geom_bond_atom_site_label_2 
_geom_bond_distance 
_geom_bond_site_symmetry_2 
_ccdc_geom_bond_type 
O1           C16   1.258       .  A
O1           Al9   1.879       .  S
C2           O12   1.262       .  A
C2            O3   1.258       .  A
C2          C105   1.483       .  S
O3           Al5   1.896       .  S
O4            C6   1.262       .  A
O4           Al5   1.895       .  S
Al5          O13   1.914       .  S
Al5          O15   1.896       .  S
Al5          O14   1.793       .  S
C6           O19   1.259       .  A
C6           C46   1.484       .  S
O7           C17   1.261       .  A
O7           Al9   1.895       .  S
O8           C21   1.262       .  A
O8          Al18   1.903       .  S
Al9          O22   1.892       .  S
Al9          O19   1.902       .  S
Al9          O14   1.792       .  S
O10          C17   1.263       .  A
O10         Al18   1.912       .  S
O11          C20   1.264       .  A
O11         Al18   1.904       .  S
O12         Al18   1.897       .  S
O13          C20   1.262       .  A
O14         Al18   1.781       .  S
O15          C16   1.259       .  A
C16          C63   1.467       .  S
C17          C88   1.480       .  S
C20         C119   1.491       .  S
C21          O22   1.258       .  A
C21          C74   1.476       .  S
O23          C38   1.259       .  A
O23         Al31   1.896       .  S
C24          O34   1.258       .  A
C24          O25   1.262       .  A
C24         C102   1.478       .  S
O25         Al27   1.903       .  S
O26          C28   1.263       .  A
O26         Al27   1.901       .  S
Al27         O35   1.903       .  S
Al27         O37   1.906       .  S
Al27         O36   1.781       .  S
C28          O41   1.262       .  A
C28          C91   1.490       .  S
O29          C39   1.260       .  A
O29         Al31   1.883       .  S
O30          C43   1.257       .  A
O30         Al40   1.889       .  S
Al31         O44   1.890       .  S
Al31         O41   1.916       .  S
Al31         O36   1.787       .  S
O32          C39   1.264       .  A
O32         Al40   1.916       .  S
O33          C42   1.264       .  A
O33         Al40   1.915       .  S
O34         Al40   1.892       .  S
O35          C42   1.262       .  A
O36         Al40   1.789       .  S
O37          C38   1.263       .  A
C38          C77   1.484       .  S
C39          C49   1.472       .  S
C42         C116   1.487       .  S
C43          O44   1.261       .  A
C43          C60   1.473       .  S
C45          C50   1.397       .  A
C45         C558   1.404       .  A
C45          H52   1.085       .  S
C46         C557   1.404       .  A
C46         C175   1.419       .  A
C47          C48   1.398   1_456  A
C47         C174   1.419       .  A
C47          N54   1.429       .  S
C48         C561   1.399       .  A
C48          H53   1.086       .  S
C49         C560   1.399       .  A
C49         C178   1.410       .  A
C50         C177   1.410       .  A
C50          N51   1.429       .  S
N51          O55   1.262       .  A
N51          O56   1.262       .  A
N54          O58   1.262       .  A
N54          O57   1.262   1_455  A
C59          C64   1.388   1_655  A
C59         C572   1.402       .  A
C59          H66   1.088       .  S
C60          C61   1.416       .  A
C60         C571   1.402       .  A
C61          C62   1.397       .  A
C61          N68   1.431       .  S
C62         C575   1.400       .  A
C62          H67   1.088       .  S
C63          C64   1.407       .  A
C63         C574   1.400       .  A
C64          N65   1.426       .  S
N65          O69   1.262       .  A
N65          O70   1.261       .  A
N68          O72   1.262       .  A
N68          O71   1.262       .  A
C73          C74   1.403       .  A
C73         C334   1.402       .  A
C73          H80   1.086       .  S
C74          C75   1.412       .  A
C75         C332   1.394       .  A
C75          N82   1.430       .  S
C76          C77   1.405       .  A
C76         C331   1.394   1_545  A
C76          H81   1.086       .  S
C77          C78   1.415       .  A
C78         C329   1.402   1_545  A
C78          N79   1.429       .  S
N79          O83   1.262       .  A
N79          O84   1.262       .  A
N82          O86   1.262       .  A
N82          O85   1.262       .  A
C87          C88   1.401       .  A
C87         C476   1.400       .  A
C87          H94   1.086       .  S
C88          C89   1.410       .  A
C89         C474   1.401       .  A
C89          N96   1.429       .  S
C90          C91   1.407       .  A
C90         C473   1.401   1_544  A
C90          H95   1.085       .  S
C91          C92   1.418       .  A
C92         C471   1.400   1_544  A
C92          N93   1.429       .  S
N93          O97   1.262   1_545  A
N93          O98   1.262       .  A
N96         O100   1.262       .  A
N96          O99   1.262       .  A
C101        C102   1.401       .  A
C101        C106   1.395   1_554  A
C101        H108   1.087       .  S
C102        C231   1.412       .  A
C103        C104   1.399       .  A
C103        C230   1.412       .  A
C103        N110   1.429       .  S
C104        C105   1.405       .  A
C104        H109   1.086       .  S
C105        C234   1.417       .  A
C106        C233   1.417       .  A
C106        N107   1.429       .  S
N107        O111   1.262       .  A
N107        O112   1.262       .  A
N110        O114   1.262       .  A
N110        O113   1.262       .  A
C115        C116   1.406       .  A
C115        C120   1.408       .  A
C115        H122   1.084       .  S
C116        C117   1.409       .  A
C117        C118   1.393       .  A
C117        N124   1.426       .  S
C118        C119   1.404       .  A
C118        H123   1.084       .  S
C119        C120   1.417       .  A
C120        N121   1.429       .  S
N121        O125   1.261       .  A
N121        O126   1.262       .  A
N124        O128   1.261       .  A
N124        O127   1.262       .  A
O129        C144   1.258       .  A
O129       Al137   1.879       .  S
C130        O140   1.262       .  A
C130        O131   1.258       .  A
C130        C233   1.483       .  S
O131       Al133   1.896       .  S
O132        C134   1.262       .  A
O132       Al133   1.895       .  S
Al133       O141   1.914       .  S
Al133       O143   1.896       .  S
Al133       O142   1.793       .  S
C134        O147   1.259       .  A
C134        C174   1.484       .  S
O135        C145   1.261       .  A
O135       Al137   1.895       .  S
O136        C149   1.262       .  A
O136       Al146   1.903       .  S
Al137       O150   1.892       .  S
Al137       O147   1.902       .  S
Al137       O142   1.792       .  S
O138        C145   1.263       .  A
O138       Al146   1.912       .  S
O139        C148   1.264       .  A
O139       Al146   1.904       .  S
O140       Al146   1.897       .  S
O141        C148   1.262       .  A
O142       Al146   1.781       .  S
O143        C144   1.259       .  A
C144        C191   1.467       .  S
C145        C216   1.479       .  S
C148        C247   1.491       .  S
C149        O150   1.258       .  A
C149        C202   1.476       .  S
O151        C166   1.259       .  A
O151       Al159   1.896       .  S
C152        O162   1.258       .  A
C152        O153   1.262       .  A
C152        C230   1.478       .  S
O153       Al155   1.903       .  S
O154        C156   1.263       .  A
O154       Al155   1.901       .  S
Al155       O163   1.903       .  S
Al155       O165   1.906       .  S
Al155       O164   1.781       .  S
C156        O169   1.262       .  A
C156        C219   1.490       .  S
O157        C167   1.260       .  A
O157       Al159   1.883       .  S
O158        C171   1.257       .  A
O158       Al168   1.889       .  S
Al159       O172   1.890       .  S
Al159       O169   1.916       .  S
Al159       O164   1.787       .  S
O160        C167   1.264       .  A
O160       Al168   1.916       .  S
O161        C170   1.264       .  A
O161       Al168   1.915       .  S
O162       Al168   1.892       .  S
O163        C170   1.262       .  A
O164       Al168   1.789       .  S
O165        C166   1.263       .  A
C166        C205   1.484       .  S
C167        C177   1.472       .  S
C170        C244   1.487       .  S
C171        O172   1.261       .  A
C171        C188   1.473       .  S
C173        C686   1.404       .  A
C173        C178   1.397   1_556  A
C173        H180   1.085       .  S
C174        C685   1.404       .  A
C175        C176   1.398   1_455  A
C175        N182   1.429       .  S
C176        C689   1.399       .  A
C176        H181   1.086       .  S
C177        C688   1.399       .  A
C178        N179   1.429       .  S
N179        O183   1.262       .  A
N179        O184   1.262       .  A
N182        O186   1.262       .  A
N182        O185   1.262   1_455  A
C187        C700   1.402       .  A
C187        C192   1.388   1_655  A
C187        H194   1.088       .  S
C188        C699   1.402       .  A
C188        C189   1.416       .  A
C189        C190   1.397       .  A
C189        N196   1.431       .  S
C190        C703   1.400       .  A
C190        H195   1.088       .  S
C191        C702   1.400       .  A
C191        C192   1.407       .  A
C192        N193   1.426       .  S
N193        O197   1.262       .  A
N193        O198   1.261       .  A
N196        O200   1.262       .  A
N196        O199   1.262       .  A
C201        C202   1.403       .  A
C201        C462   1.402       .  A
C201        H208   1.086       .  S
C202        C203   1.412       .  A
C203        C460   1.394       .  A
C203        N210   1.430       .  S
C204        C459   1.394   1_545  A
C204        C205   1.405       .  A
C204        H209   1.086       .  S
C205        C206   1.415       .  A
C206        C457   1.402   1_545  A
C206        N207   1.429       .  S
N207        O211   1.262       .  A
N207        O212   1.262       .  A
N210        O214   1.262       .  A
N210        O213   1.262       .  A
C215        C216   1.401       .  A
C215        C348   1.400   1_556  A
C215        H222   1.086       .  S
C216        C217   1.410       .  A
C217        C346   1.401   1_556  A
C217        N224   1.429       .  S
C218        C345   1.401   1_545  A
C218        C219   1.407       .  A
C218        H223   1.085       .  S
C219        C220   1.418       .  A
C220        C343   1.400   1_545  A
C220        N221   1.429       .  S
N221        O225   1.262   1_545  A
N221        O226   1.262       .  A
N224        O228   1.262       .  A
N224        O227   1.262       .  A
C229        C230   1.401       .  A
C229        C234   1.395       .  A
C229        H236   1.087       .  S
C231        C232   1.399   1_554  A
C231        N238   1.429       .  S
C232        C233   1.405       .  A
C232        H237   1.086       .  S
C234        N235   1.429       .  S
N235        O239   1.262       .  A
N235        O240   1.262       .  A
N238        O242   1.262       .  A
N238        O241   1.262       .  A
C243        C244   1.406       .  A
C243        C248   1.408       .  A
C243        H250   1.084       .  S
C244        C245   1.409       .  A
C245        C246   1.393       .  A
C245        N252   1.426       .  S
C246        C247   1.404       .  A
C246        H251   1.084       .  S
C247        C248   1.417       .  A
C248        N249   1.429       .  S
N249        O253   1.261       .  A
N249        O254   1.262       .  A
N252        O256   1.261       .  A
N252        O255   1.262       .  A
O257        C272   1.258       .  A
O257       Al265   1.879       .  S
C258        O268   1.262       .  A
C258        O259   1.258       .  A
C258        C361   1.483       .  S
O259       Al261   1.896       .  S
O260        C262   1.262       .  A
O260       Al261   1.895       .  S
Al261       O269   1.914       .  S
Al261       O271   1.896       .  S
Al261       O270   1.793       .  S
C262        O275   1.259       .  A
C262        C302   1.484       .  S
O263        C273   1.261       .  A
O263       Al265   1.895       .  S
O264        C277   1.262       .  A
O264       Al274   1.903       .  S
Al265       O278   1.892       .  S
Al265       O275   1.902       .  S
Al265       O270   1.792       .  S
O266        C273   1.263       .  A
O266       Al274   1.912       .  S
O267        C276   1.263       .  A
O267       Al274   1.904       .  S
O268       Al274   1.897       .  S
O269        C276   1.262       .  A
O270       Al274   1.781       .  S
O271        C272   1.259       .  A
C272        C319   1.467       .  S
C273        C344   1.479       .  S
C276        C375   1.491       .  S
C277        O278   1.258       .  A
C277        C330   1.476       .  S
O279        C294   1.259       .  A
O279       Al287   1.896       .  S
C280        O290   1.258       .  A
C280        O281   1.262       .  A
C280        C358   1.478       .  S
O281       Al283   1.903       .  S
O282        C284   1.263       .  A
O282       Al283   1.901       .  S
Al283       O291   1.903       .  S
Al283       O293   1.906       .  S
Al283       O292   1.781       .  S
C284        O297   1.262       .  A
C284        C347   1.490       .  S
O285        C295   1.260       .  A
O285       Al287   1.883       .  S
O286        C299   1.257       .  A
O286       Al296   1.889       .  S
Al287       O300   1.890       .  S
Al287       O297   1.916       .  S
Al287       O292   1.787       .  S
O288        C295   1.264       .  A
O288       Al296   1.916       .  S
O289        C298   1.264       .  A
O289       Al296   1.915       .  S
O290       Al296   1.892       .  S
O291        C298   1.262       .  A
O292       Al296   1.789       .  S
O293        C294   1.263       .  A
C294        C333   1.484       .  S
C295        C305   1.472       .  S
C298        C372   1.487       .  S
C299        O300   1.261       .  A
C299        C316   1.473       .  S
C301        C814   1.404       .  A
C301        C306   1.397       .  A
C301        H308   1.085       .  S
C302        C813   1.404       .  A
C302        C431   1.419       .  A
C303        C430   1.419       .  A
C303        C304   1.398   1_456  A
C303        N310   1.429       .  S
C304        C817   1.399       .  A
C304        H309   1.086       .  S
C305        C816   1.399       .  A
C305        C434   1.410       .  A
C306        C433   1.410       .  A
C306        N307   1.429       .  S
N307        O311   1.262       .  A
N307        O312   1.262       .  A
N310        O314   1.262       .  A
N310        O313   1.262   1_455  A
C315        C828   1.402       .  A
C315        C320   1.388   1_655  A
C315        H322   1.088       .  S
C316        C827   1.402       .  A
C316        C317   1.416       .  A
C317        C318   1.397       .  A
C317        N324   1.431       .  S
C318        C831   1.400       .  A
C318        H323   1.088       .  S
C319        C830   1.400       .  A
C319        C320   1.407       .  A
C320        N321   1.426       .  S
N321        O325   1.262       .  A
N321        O326   1.261       .  A
N324        O328   1.262       .  A
N324        O327   1.262       .  A
C329        C330   1.403       .  A
C329        H336   1.086       .  S
C330        C331   1.412       .  A
C331        N338   1.430       .  S
C332        C333   1.405       .  A
C332        H337   1.086       .  S
C333        C334   1.415       .  A
C334        N335   1.429       .  S
N335        O339   1.262       .  A
N335        O340   1.262       .  A
N338        O342   1.262       .  A
N338        O341   1.262       .  A
C343        C344   1.401       .  A
C343        H350   1.086       .  S
C344        C345   1.410       .  A
C345        N352   1.429       .  S
C346        C347   1.407       .  A
C346        H351   1.085       .  S
C347        C348   1.418       .  A
C348        N349   1.429       .  S
N349        O353   1.262       .  A
N349        O354   1.262       .  A
N352        O356   1.262   1_565  A
N352        O355   1.262       .  A
C357        C358   1.401       .  A
C357        C362   1.395   1_554  A
C357        H364   1.087       .  S
C358        C487   1.412       .  A
C359        C486   1.412       .  A
C359        C360   1.399       .  A
C359        N366   1.429       .  S
C360        C361   1.405       .  A
C360        H365   1.086       .  S
C361        C490   1.417       .  A
C362        C489   1.417       .  A
C362        N363   1.429       .  S
N363        O367   1.262       .  A
N363        O368   1.262       .  A
N366        O370   1.262       .  A
N366        O369   1.262       .  A
C371        C372   1.406       .  A
C371        C376   1.408       .  A
C371        H378   1.084       .  S
C372        C373   1.409       .  A
C373        C374   1.393       .  A
C373        N380   1.426       .  S
C374        C375   1.404       .  A
C374        H379   1.084       .  S
C375        C376   1.417       .  A
C376        N377   1.429       .  S
N377        O381   1.261       .  A
N377        O382   1.262       .  A
N380        O384   1.261       .  A
N380        O383   1.262       .  A
O385        C400   1.258       .  A
O385       Al393   1.879       .  S
C386        O396   1.262       .  A
C386        O387   1.258       .  A
C386        C489   1.483       .  S
O387       Al389   1.896       .  S
O388        C390   1.262       .  A
O388       Al389   1.895       .  S
Al389       O397   1.914       .  S
Al389       O399   1.896       .  S
Al389       O398   1.793       .  S
C390        O403   1.259       .  A
C390        C430   1.484       .  S
O391        C401   1.261       .  A
O391       Al393   1.895       .  S
O392        C405   1.262       .  A
O392       Al402   1.903       .  S
Al393       O406   1.892       .  S
Al393       O403   1.902       .  S
Al393       O398   1.792       .  S
O394        C401   1.263       .  A
O394       Al402   1.912       .  S
O395        C404   1.264       .  A
O395       Al402   1.904       .  S
O396       Al402   1.897       .  S
O397        C404   1.262       .  A
O398       Al402   1.781       .  S
O399        C400   1.259       .  A
C400        C447   1.467       .  S
C401        C472   1.479       .  S
C404        C503   1.491       .  S
C405        O406   1.258       .  A
C405        C458   1.476       .  S
O407        C422   1.259       .  A
O407       Al415   1.896       .  S
C408        O418   1.258       .  A
C408        O409   1.262       .  A
C408        C486   1.478       .  S
O409       Al411   1.903       .  S
O410        C412   1.263       .  A
O410       Al411   1.901       .  S
Al411       O419   1.903       .  S
Al411       O421   1.906       .  S
Al411       O420   1.781       .  S
C412        O425   1.262       .  A
C412        C475   1.490       .  S
O413        C423   1.260       .  A
O413       Al415   1.883       .  S
O414        C427   1.257       .  A
O414       Al424   1.889       .  S
Al415       O428   1.890       .  S
Al415       O425   1.916       .  S
Al415       O420   1.787       .  S
O416        C423   1.264       .  A
O416       Al424   1.916       .  S
O417        C426   1.264       .  A
O417       Al424   1.915       .  S
O418       Al424   1.892       .  S
O419        C426   1.262       .  A
O420       Al424   1.789       .  S
O421        C422   1.263       .  A
C422        C461   1.484       .  S
C423        C433   1.472       .  S
C426        C500   1.487       .  S
C427        O428   1.261       .  A
C427        C444   1.473       .  S
C429        C942   1.404       .  A
C429        C434   1.397   1_556  A
C429        H436   1.085       .  S
C430        C941   1.404       .  A
C431        C432   1.398   1_455  A
C431        N438   1.429       .  S
C432        C945   1.399       .  A
C432        H437   1.086       .  S
C433        C944   1.399       .  A
C434        N435   1.429       .  S
N435        O439   1.262       .  A
N435        O440   1.262       .  A
N438        O442   1.262       .  A
N438        O441   1.262   1_455  A
C443        C956   1.402       .  A
C443        C448   1.388   1_655  A
C443        H450   1.088       .  S
C444        C955   1.402       .  A
C444        C445   1.416       .  A
C445        C446   1.397       .  A
C445        N452   1.431       .  S
C446        C959   1.400       .  A
C446        H451   1.088       .  S
C447        C958   1.400       .  A
C447        C448   1.407       .  A
C448        N449   1.426       .  S
N449        O453   1.262       .  A
N449        O454   1.261       .  A
N452        O456   1.262       .  A
N452        O455   1.262       .  A
C457        C458   1.403       .  A
C457        H464   1.086       .  S
C458        C459   1.412       .  A
C459        N466   1.430       .  S
C460        C461   1.405       .  A
C460        H465   1.086       .  S
C461        C462   1.415       .  A
C462        N463   1.429       .  S
N463        O467   1.262       .  A
N463        O468   1.262       .  A
N466        O470   1.262       .  A
N466        O469   1.262       .  A
C471        C472   1.401       .  A
C471        H478   1.086       .  S
C472        C473   1.410       .  A
C473        N480   1.429       .  S
C474        C475   1.407       .  A
C474        H479   1.085       .  S
C475        C476   1.418       .  A
C476        N477   1.429       .  S
N477        O481   1.262       .  A
N477        O482   1.262       .  A
N480        O484   1.262   1_565  A
N480        O483   1.262       .  A
C485        C486   1.401       .  A
C485        C490   1.395       .  A
C485        H492   1.087       .  S
C487        C488   1.399   1_554  A
C487        N494   1.429       .  S
C488        C489   1.405       .  A
C488        H493   1.086       .  S
C490        N491   1.429       .  S
N491        O495   1.262       .  A
N491        O496   1.262       .  A
N494        O498   1.262       .  A
N494        O497   1.262       .  A
C499        C500   1.406       .  A
C499        C504   1.408       .  A
C499        H506   1.084       .  S
C500        C501   1.409       .  A
C501        C502   1.393       .  A
C501        N508   1.426       .  S
C502        C503   1.404       .  A
C502        H507   1.084       .  S
C503        C504   1.417       .  A
C504        N505   1.429       .  S
N505        O509   1.261       .  A
N505        O510   1.262       .  A
N508        O512   1.261       .  A
N508        O511   1.262       .  A
O513        C528   1.258       .  A
O513       Al521   1.879       .  S
C514        O524   1.262       .  A
C514        O515   1.258       .  A
C514        C617   1.483       .  S
O515       Al517   1.896       .  S
O516        C518   1.262       .  A
O516       Al517   1.895       .  S
Al517       O525   1.914       .  S
Al517       O527   1.896       .  S
Al517       O526   1.793       .  S
C518        O531   1.259       .  A
C518        C558   1.484       .  S
O519        C529   1.261       .  A
O519       Al521   1.895       .  S
O520        C533   1.262       .  A
O520       Al530   1.903       .  S
Al521       O534   1.892       .  S
Al521       O531   1.902       .  S
Al521       O526   1.792       .  S
O522        C529   1.263       .  A
O522       Al530   1.912       .  S
O523        C532   1.263       .  A
O523       Al530   1.904       .  S
O524       Al530   1.897       .  S
O525        C532   1.262       .  A
O526       Al530   1.781       .  S
O527        C528   1.259       .  A
C528        C575   1.467       .  S
C529        C600   1.479       .  S
C532        C631   1.491       .  S
C533        O534   1.258       .  A
C533        C586   1.476       .  S
O535        C550   1.259       .  A
O535       Al543   1.896       .  S
C536        O546   1.258       .  A
C536        O537   1.262       .  A
C536        C614   1.478       .  S
O537       Al539   1.903       .  S
O538        C540   1.263       .  A
O538       Al539   1.901       .  S
Al539       O547   1.903       .  S
Al539       O549   1.906       .  S
Al539       O548   1.781       .  S
C540        O553   1.262       .  A
C540        C603   1.490       .  S
O541        C551   1.260       .  A
O541       Al543   1.883       .  S
O542        C555   1.257       .  A
O542       Al552   1.889       .  S
Al543       O556   1.890       .  S
Al543       O553   1.916       .  S
Al543       O548   1.787       .  S
O544        C551   1.264       .  A
O544       Al552   1.916       .  S
O545        C554   1.264       .  A
O545       Al552   1.915       .  S
O546       Al552   1.892       .  S
O547        C554   1.262       .  A
O548       Al552   1.789       .  S
O549        C550   1.263       .  A
C550        C589   1.484       .  S
C551        C561   1.472       .  S
C554        C628   1.487       .  S
C555        O556   1.261       .  A
C555        C572   1.473       .  S
C557        C562   1.397   1_455  A
C557        H564   1.085       .  S
C558        C687   1.419       .  A
C559        C686   1.419       .  A
C559        C560   1.398   1_556  A
C559        N566   1.429       .  S
C560        H565   1.086       .  S
C561        C690   1.410       .  A
C562        C689   1.410       .  A
C562        N563   1.429       .  S
N563        O567   1.262       .  A
N563        O568   1.262   1_655  A
N566        O570   1.262       .  A
N566        O569   1.262       .  A
C571        C576   1.388       .  A
C571        H578   1.088       .  S
C572        C573   1.416       .  A
C573        C574   1.397   1_655  A
C573        N580   1.431       .  S
C574        H579   1.088       .  S
C575        C576   1.407       .  A
C576        N577   1.426       .  S
N577        O581   1.262       .  A
N577        O582   1.261       .  A
N580        O584   1.262       .  A
N580        O583   1.262       .  A
C585        C586   1.403       .  A
C585        C846   1.402       .  A
C585        H592   1.086       .  S
C586        C587   1.412       .  A
C587        C844   1.394       .  A
C587        N594   1.430       .  S
C588        C843   1.394   1_545  A
C588        C589   1.405       .  A
C588        H593   1.086       .  S
C589        C590   1.415       .  A
C590        C841   1.402   1_545  A
C590        N591   1.429       .  S
N591        O595   1.262       .  A
N591        O596   1.262       .  A
N594        O598   1.262       .  A
N594        O597   1.262       .  A
C599        C600   1.401       .  A
C599        C988   1.400       .  A
C599        H606   1.086       .  S
C600        C601   1.410       .  A
C601        C986   1.401       .  A
C601        N608   1.429       .  S
C602        C985   1.401   1_544  A
C602        C603   1.407       .  A
C602        H607   1.085       .  S
C603        C604   1.418       .  A
C604        C983   1.400   1_544  A
C604        N605   1.429       .  S
N605        O609   1.262   1_545  A
N605        O610   1.262       .  A
N608        O612   1.262       .  A
N608        O611   1.262       .  A
C613        C614   1.401       .  A
C613        C618   1.395   1_554  A
C613        H620   1.087       .  S
C614        C743   1.412       .  A
C615        C742   1.412       .  A
C615        C616   1.399       .  A
C615        N622   1.429       .  S
C616        C617   1.405       .  A
C616        H621   1.086       .  S
C617        C746   1.417       .  A
C618        C745   1.417       .  A
C618        N619   1.429       .  S
N619        O623   1.262       .  A
N619        O624   1.262       .  A
N622        O626   1.262       .  A
N622        O625   1.262       .  A
C627        C628   1.406       .  A
C627        C632   1.408       .  A
C627        H634   1.084       .  S
C628        C629   1.409       .  A
C629        C630   1.393       .  A
C629        N636   1.426       .  S
C630        C631   1.404       .  A
C630        H635   1.084       .  S
C631        C632   1.417       .  A
C632        N633   1.429       .  S
N633        O637   1.261       .  A
N633        O638   1.262       .  A
N636        O640   1.261       .  A
N636        O639   1.262       .  A
O641        C656   1.258       .  A
O641       Al649   1.879       .  S
C642        O652   1.262       .  A
C642        O643   1.258       .  A
C642        C745   1.483       .  S
O643       Al645   1.896       .  S
O644        C646   1.262       .  A
O644       Al645   1.895       .  S
Al645       O653   1.914       .  S
Al645       O655   1.896       .  S
Al645       O654   1.793       .  S
C646        O659   1.259       .  A
C646        C686   1.484       .  S
O647        C657   1.261       .  A
O647       Al649   1.895       .  S
O648        C661   1.262       .  A
O648       Al658   1.903       .  S
Al649       O662   1.892       .  S
Al649       O659   1.902       .  S
Al649       O654   1.792       .  S
O650        C657   1.263       .  A
O650       Al658   1.912       .  S
O651        C660   1.264       .  A
O651       Al658   1.904       .  S
O652       Al658   1.897       .  S
O653        C660   1.262       .  A
O654       Al658   1.781       .  S
O655        C656   1.259       .  A
C656        C703   1.467       .  S
C657        C728   1.479       .  S
C660        C759   1.491       .  S
C661        O662   1.258       .  A
C661        C714   1.476       .  S
O663        C678   1.259       .  A
O663       Al671   1.896       .  S
C664        O674   1.258       .  A
C664        O665   1.262       .  A
C664        C742   1.478       .  S
O665       Al667   1.903       .  S
O666        C668   1.263       .  A
O666       Al667   1.901       .  S
Al667       O675   1.903       .  S
Al667       O677   1.906       .  S
Al667       O676   1.781       .  S
C668        O681   1.262       .  A
C668        C731   1.490       .  S
O669        C679   1.260       .  A
O669       Al671   1.883       .  S
O670        C683   1.257       .  A
O670       Al680   1.889       .  S
Al671       O684   1.890       .  S
Al671       O681   1.916       .  S
Al671       O676   1.787       .  S
O672        C679   1.264       .  A
O672       Al680   1.916       .  S
O673        C682   1.264       .  A
O673       Al680   1.915       .  S
O674       Al680   1.892       .  S
O675        C682   1.262       .  A
O676       Al680   1.789       .  S
O677        C678   1.263       .  A
C678        C717   1.484       .  S
C679        C689   1.472       .  S
C682        C756   1.487       .  S
C683        O684   1.261       .  A
C683        C700   1.473       .  S
C685        C690   1.397   1_456  A
C685        H692   1.085       .  S
C687        C688   1.398       .  A
C687        N694   1.429       .  S
C688        H693   1.086       .  S
C690        N691   1.429       .  S
N691        O695   1.262       .  A
N691        O696   1.262   1_655  A
N694        O698   1.262       .  A
N694        O697   1.262       .  A
C699        C704   1.388       .  A
C699        H706   1.088       .  S
C700        C701   1.416       .  A
C701        C702   1.397   1_655  A
C701        N708   1.431       .  S
C702        H707   1.088       .  S
C703        C704   1.407       .  A
C704        N705   1.426       .  S
N705        O709   1.262       .  A
N705        O710   1.261       .  A
N708        O712   1.262       .  A
N708        O711   1.262       .  A
C713        C714   1.403       .  A
C713        C974   1.402       .  A
C713        H720   1.086       .  S
C714        C715   1.412       .  A
C715        C972   1.394       .  A
C715        N722   1.430       .  S
C716        C971   1.394   1_545  A
C716        C717   1.405       .  A
C716        H721   1.086       .  S
C717        C718   1.415       .  A
C718        C969   1.402   1_545  A
C718        N719   1.429       .  S
N719        O723   1.262       .  A
N719        O724   1.262       .  A
N722        O726   1.262       .  A
N722        O725   1.262       .  A
C727        C728   1.401       .  A
C727        C860   1.400   1_556  A
C727        H734   1.086       .  S
C728        C729   1.410       .  A
C729        C858   1.401   1_556  A
C729        N736   1.429       .  S
C730        C857   1.401   1_545  A
C730        C731   1.407       .  A
C730        H735   1.085       .  S
C731        C732   1.418       .  A
C732        C855   1.400   1_545  A
C732        N733   1.429       .  S
N733        O737   1.262   1_545  A
N733        O738   1.262       .  A
N736        O740   1.262       .  A
N736        O739   1.262       .  A
C741        C742   1.401       .  A
C741        C746   1.395       .  A
C741        H748   1.087       .  S
C743        C744   1.399   1_554  A
C743        N750   1.429       .  S
C744        C745   1.405       .  A
C744        H749   1.086       .  S
C746        N747   1.429       .  S
N747        O751   1.262       .  A
N747        O752   1.262       .  A
N750        O754   1.262       .  A
N750        O753   1.262       .  A
C755        C756   1.406       .  A
C755        C760   1.408       .  A
C755        H762   1.084       .  S
C756        C757   1.409       .  A
C757        C758   1.393       .  A
C757        N764   1.426       .  S
C758        C759   1.404       .  A
C758        H763   1.084       .  S
C759        C760   1.417       .  A
C760        N761   1.429       .  S
N761        O765   1.261       .  A
N761        O766   1.262       .  A
N764        O768   1.261       .  A
N764        O767   1.262       .  A
O769        C784   1.258       .  A
O769       Al777   1.879       .  S
C770        O780   1.262       .  A
C770        O771   1.258       .  A
C770        C873   1.483       .  S
O771       Al773   1.896       .  S
O772        C774   1.262       .  A
O772       Al773   1.895       .  S
Al773       O781   1.914       .  S
Al773       O783   1.896       .  S
Al773       O782   1.793       .  S
C774        O787   1.259       .  A
C774        C814   1.484       .  S
O775        C785   1.261       .  A
O775       Al777   1.895       .  S
O776        C789   1.262       .  A
O776       Al786   1.903       .  S
Al777       O790   1.892       .  S
Al777       O787   1.902       .  S
Al777       O782   1.792       .  S
O778        C785   1.263       .  A
O778       Al786   1.912       .  S
O779        C788   1.264       .  A
O779       Al786   1.904       .  S
O780       Al786   1.897       .  S
O781        C788   1.262       .  A
O782       Al786   1.781       .  S
O783        C784   1.259       .  A
C784        C831   1.467       .  S
C785        C856   1.480       .  S
C788        C887   1.491       .  S
C789        O790   1.258       .  A
C789        C842   1.476       .  S
O791        C806   1.259       .  A
O791       Al799   1.896       .  S
C792        O802   1.258       .  A
C792        O793   1.262       .  A
C792        C870   1.478       .  S
O793       Al795   1.903       .  S
O794        C796   1.263       .  A
O794       Al795   1.901       .  S
Al795       O803   1.903       .  S
Al795       O805   1.906       .  S
Al795       O804   1.781       .  S
C796        O809   1.262       .  A
C796        C859   1.490       .  S
O797        C807   1.260       .  A
O797       Al799   1.883       .  S
O798        C811   1.257       .  A
O798       Al808   1.890       .  S
Al799       O812   1.890       .  S
Al799       O809   1.916       .  S
Al799       O804   1.787       .  S
O800        C807   1.264       .  A
O800       Al808   1.916       .  S
O801        C810   1.264       .  A
O801       Al808   1.915       .  S
O802       Al808   1.892       .  S
O803        C810   1.262       .  A
O804       Al808   1.789       .  S
O805        C806   1.263       .  A
C806        C845   1.484       .  S
C807        C817   1.472       .  S
C810        C884   1.487       .  S
C811        O812   1.261       .  A
C811        C828   1.473       .  S
C813        C818   1.397   1_455  A
C813        H820   1.085       .  S
C814        C943   1.419       .  A
C815        C942   1.419       .  A
C815        C816   1.398   1_556  A
C815        N822   1.429       .  S
C816        H821   1.086       .  S
C817        C946   1.410       .  A
C818        C945   1.410       .  A
C818        N819   1.429       .  S
N819        O823   1.262       .  A
N819        O824   1.262   1_655  A
N822        O826   1.262       .  A
N822        O825   1.262       .  A
C827        C832   1.388       .  A
C827        H834   1.088       .  S
C828        C829   1.416       .  A
C829        C830   1.397   1_655  A
C829        N836   1.431       .  S
C830        H835   1.088       .  S
C831        C832   1.407       .  A
C832        N833   1.426       .  S
N833        O837   1.262       .  A
N833        O838   1.261       .  A
N836        O840   1.262       .  A
N836        O839   1.262       .  A
C841        C842   1.403       .  A
C841        H848   1.086       .  S
C842        C843   1.412       .  A
C843        N850   1.430       .  S
C844        C845   1.405       .  A
C844        H849   1.086       .  S
C845        C846   1.415       .  A
C846        N847   1.429       .  S
N847        O851   1.262       .  A
N847        O852   1.262       .  A
N850        O854   1.262       .  A
N850        O853   1.262       .  A
C855        C856   1.401       .  A
C855        H862   1.086       .  S
C856        C857   1.410       .  A
C857        N864   1.429       .  S
C858        C859   1.407       .  A
C858        H863   1.085       .  S
C859        C860   1.418       .  A
C860        N861   1.429       .  S
N861        O865   1.262       .  A
N861        O866   1.262       .  A
N864        O868   1.262   1_565  A
N864        O867   1.262       .  A
C869        C870   1.401       .  A
C869        C874   1.395   1_554  A
C869        H876   1.087       .  S
C870        C999   1.412       .  A
C871        C998   1.412       .  A
C871        C872   1.399       .  A
C871        N878   1.429       .  S
C872        C873   1.405       .  A
C872        H877   1.086       .  S
C873       C1002   1.417       .  A
C874       C1001   1.417       .  A
C874        N875   1.429       .  S
N875        O879   1.262       .  A
N875        O880   1.262       .  A
N878        O882   1.262       .  A
N878        O881   1.262       .  A
C883        C884   1.406       .  A
C883        C888   1.408       .  A
C883        H890   1.084       .  S
C884        C885   1.409       .  A
C885        C886   1.393       .  A
C885        N892   1.426       .  S
C886        C887   1.404       .  A
C886        H891   1.084       .  S
C887        C888   1.417       .  A
C888        N889   1.429       .  S
N889        O893   1.261       .  A
N889        O894   1.262       .  A
N892        O896   1.261       .  A
N892        O895   1.262       .  A
O897        C912   1.258       .  A
O897       Al905   1.879       .  S
C898        O908   1.262       .  A
C898        O899   1.258       .  A
C898       C1001   1.483       .  S
O899       Al901   1.896       .  S
O900        C902   1.262       .  A
O900       Al901   1.895       .  S
Al901       O909   1.914       .  S
Al901       O911   1.896       .  S
Al901       O910   1.793       .  S
C902        O915   1.259       .  A
C902        C942   1.484       .  S
O903        C913   1.261       .  A
O903       Al905   1.895       .  S
O904        C917   1.262       .  A
O904       Al914   1.903       .  S
Al905       O918   1.892       .  S
Al905       O915   1.902       .  S
Al905       O910   1.792       .  S
O906        C913   1.263       .  A
O906       Al914   1.912       .  S
O907        C916   1.264       .  A
O907       Al914   1.904       .  S
O908       Al914   1.897       .  S
O909        C916   1.262       .  A
O910       Al914   1.781       .  S
O911        C912   1.259       .  A
C912        C959   1.467       .  S
C913        C984   1.479       .  S
C916       C1015   1.491       .  S
C917        O918   1.258       .  A
C917        C970   1.476       .  S
O919        C934   1.259       .  A
O919       Al927   1.896       .  S
C920        O930   1.258       .  A
C920        O921   1.262       .  A
C920        C998   1.478       .  S
O921       Al923   1.903       .  S
O922        C924   1.263       .  A
O922       Al923   1.901       .  S
Al923       O931   1.903       .  S
Al923       O933   1.906       .  S
Al923       O932   1.781       .  S
C924        O937   1.262       .  A
C924        C987   1.490       .  S
O925        C935   1.260       .  A
O925       Al927   1.883       .  S
O926        C939   1.257       .  A
O926       Al936   1.889       .  S
Al927       O940   1.890       .  S
Al927       O937   1.916       .  S
Al927       O932   1.787       .  S
O928        C935   1.264       .  A
O928       Al936   1.916       .  S
O929        C938   1.264       .  A
O929       Al936   1.915       .  S
O930       Al936   1.892       .  S
O931        C938   1.262       .  A
O932       Al936   1.789       .  S
O933        C934   1.263       .  A
C934        C973   1.484       .  S
C935        C945   1.472       .  S
C938       C1012   1.487       .  S
C939        O940   1.261       .  A
C939        C956   1.473       .  S
C941        C946   1.397   1_456  A
C941        H948   1.085       .  S
C943        C944   1.398       .  A
C943        N950   1.429       .  S
C944        H949   1.086       .  S
C946        N947   1.429       .  S
N947        O951   1.262       .  A
N947        O952   1.262   1_655  A
N950        O954   1.262       .  A
N950        O953   1.262       .  A
C955        C960   1.388       .  A
C955        H962   1.088       .  S
C956        C957   1.416       .  A
C957        C958   1.397   1_655  A
C957        N964   1.431       .  S
C958        H963   1.088       .  S
C959        C960   1.407       .  A
C960        N961   1.426       .  S
N961        O965   1.262       .  A
N961        O966   1.261       .  A
N964        O968   1.262       .  A
N964        O967   1.262       .  A
C969        C970   1.403       .  A
C969        H976   1.086       .  S
C970        C971   1.412       .  A
C971        N978   1.430       .  S
C972        C973   1.405       .  A
C972        H977   1.086       .  S
C973        C974   1.415       .  A
C974        N975   1.429       .  S
N975        O979   1.262       .  A
N975        O980   1.262       .  A
N978        O982   1.262       .  A
N978        O981   1.262       .  A
C983        C984   1.401       .  A
C983        H990   1.086       .  S
C984        C985   1.410       .  A
C985        N992   1.429       .  S
C986        C987   1.407       .  A
C986        H991   1.085       .  S
C987        C988   1.418       .  A
C988        N989   1.429       .  S
N989        O993   1.262       .  A
N989        O994   1.262       .  A
N992        O996   1.262   1_565  A
N992        O995   1.262       .  A
C997        C998   1.401       .  A
C997       C1002   1.395       .  A
C997       H1004   1.087       .  S
C999       C1000   1.399   1_554  A
C999       N1006   1.429       .  S
C1000      C1001   1.405       .  A
C1000      H1005   1.086       .  S
C1002      N1003   1.429       .  S
N1003      O1007   1.262       .  A
N1003      O1008   1.262       .  A
N1006      O1010   1.262       .  A
N1006      O1009   1.262       .  A
C1011      C1012   1.406       .  A
C1011      C1016   1.408       .  A
C1011      H1018   1.084       .  S
C1012      C1013   1.409       .  A
C1013      C1014   1.393       .  A
C1013      N1020   1.426       .  S
C1014      C1015   1.404       .  A
C1014      H1019   1.084       .  S
C1015      C1016   1.417       .  A
C1016      N1017   1.429       .  S
N1017      O1021   1.261       .  A
N1017      O1022   1.262       .  A
N1020      O1024   1.261       .  A
N1020      O1023   1.262       .  A
