geometry optimzed in LAMMPS
_audit_creation_date              2020-11-30 
_audit_creation_method            'lammps2cif' 
_symmetry_space_group_name_H-M    'P1' 
_symmetry_Int_Tables_number       1 
_symmetry_cell_setting            triclinic 
loop_ 
_symmetry_equiv_pos_as_xyz 
  x,y,z 
_cell_length_a                    24.231961969044278 
_cell_length_b                    24.20044982206155 
_cell_length_c                    40.1145161913442 
_cell_angle_alpha                 89.85810986365233 
_cell_angle_beta                  90.09408823878057 
_cell_angle_gamma                 120.08259016539076 
loop_ 
_atom_site_label 
_atom_site_type_symbol 
_atom_site_fract_x 
_atom_site_fract_y 
_atom_site_fract_z 
_atom_site_charge 
C1          C  0.43395379  0.05895630  0.89876652     0.04410
C2          C  0.47988660  0.11506732  0.91456621    -0.11740
C3          C  0.46653258  0.13317401  0.94540298     0.01910
C4          C  0.40824206  0.09199097  0.96126479    -0.10260
C5          C  0.36204929  0.03598967  0.94542234     0.04410
C6          C  0.37609947  0.01897997  0.91465379    -0.09680
H7          H  0.52249575  0.14833054  0.90102293     0.10000
H8          H  0.39600451  0.10709364  0.98407588     0.07530
H9          H  0.33943979  0.97767911  0.90152233     0.07380
C10         C  0.43702916  0.27846239  0.89346136     0.04410
C11         C  0.47415857  0.25577044  0.90870979    -0.11740
C12         C  0.46439182  0.23468218  0.94172095     0.01910
C13         C  0.41201492  0.22970096  0.95929746    -0.10260
C14         C  0.37079441  0.24736781  0.94407542     0.04410
C15         C  0.38780637  0.27797673  0.91285652    -0.09680
H16         H  0.50767968  0.24848462  0.89450487     0.10000
H17         H  0.40008810  0.20680739  0.98349330     0.07530
H18         H  0.35841603  0.29607574  0.90322273     0.07380
C19         C  0.33704542  0.38178202  0.02272277     0.04410
C20         C  0.31413382  0.41872829  0.00728944    -0.11740
C21         C  0.29268564  0.40857525  0.97432312     0.01910
C22         C  0.28757127  0.35608144  0.95688983    -0.10260
C23         C  0.30527409  0.31501848  0.97218348     0.04410
C24         C  0.33640400  0.33245602  0.00321127    -0.09680
H25         H  0.30651716  0.45221332  0.02122061     0.10000
H26         H  0.26423096  0.34375387  0.93283523     0.07530
H27         H  0.35484369  0.30313381  0.01229312     0.07380
C28         C  0.22208580  0.07503880  0.89519199     0.04410
C29         C  0.23957895  0.03355999  0.91089414    -0.11740
C30         C  0.26329557  0.04342275  0.94349082     0.01910
C31         C  0.27649026  0.09993912  0.95989274    -0.10260
C32         C  0.26509870  0.14509841  0.94399065     0.04410
C33         C  0.23274355  0.12959364  0.91329690    -0.09860
H34         H  0.24131657  0.99630056  0.89708771     0.10000
H35         H  0.30092462  0.11142661  0.98364338     0.07530
H36         H  0.22072283  0.16341481  0.90319814     0.07380
C37         C  0.11517699  0.37685053  0.01749542     0.04410
C38         C  0.07373110  0.32065842  0.00039545    -0.11740
C39         C  0.09200883  0.30598183  0.97010982     0.01910
C40         C  0.14898325  0.35159610  0.95478259    -0.10260
C41         C  0.19055405  0.40913189  0.97104464     0.04410
C42         C  0.17303364  0.42134751  0.00225102    -0.09680
H43         H  0.02988920  0.28513588  0.01211726     0.10000
H44         H  0.16423623  0.33937398  0.93201941     0.07530
H45         H  0.20797938  0.46232680  0.01621182     0.07380
C46         C  0.29370306  0.50618624  0.95479977     0.01850
C47         C  0.25955318  0.44272717  0.96261606     0.01850
C48         C  0.13168991  0.16764754  0.02160124     0.04410
C49         C  0.08946763  0.18330908  0.00543829    -0.11740
C50         C  0.10020388  0.20746637  0.97290424     0.01910
C51         C  0.15716785  0.22093254  0.95684231    -0.10260
C52         C  0.20235666  0.21005989  0.97315156     0.04410
C53         C  0.18698690  0.17897752  0.00422802    -0.09680
H54         H  0.05054185  0.18249469  0.01898016     0.10000
H55         H  0.16874423  0.24480728  0.93291136     0.07530
H56         H  0.22096021  0.16809895  0.01544539     0.07380
C57         C  0.06267171  0.23735579  0.96122087     0.01850
C58         C  0.99936802  0.20238994  0.95347848     0.01850
C59         C  0.30184224  0.21395918  0.95392705     0.01850
C60         C  0.27099045  0.24577522  0.96287186     0.01850
O61         O  0.03327883  0.39358252  0.66324446    -0.84060
O62         O  0.14304576  0.49930120  0.67747413    -0.81110
C63         C  0.13639924  0.03596013  0.65698951     0.99400
O64         O  0.10542033  0.06234512  0.66545060    -0.81140
O65         O  0.00051665  0.06481730  0.68314319    -0.83790
C66         C  0.46104686  0.02373805  0.66275194     1.03920
O67         O  0.43661936  0.46550763  0.66917169    -0.76550
O68         O  0.43490763  0.35593415  0.68025363    -0.76740
C69         C  0.47453533  0.36157370  0.65796684     1.03880
O70         O  0.01017665  0.35493614  0.73354308    -0.84060
O71         O  0.11382950  0.46735440  0.74807729    -0.81120
C72         C  0.14483509  0.02610184  0.75523081     0.99420
O73         O  0.14518960  0.06688576  0.73504289    -0.81150
O74         O  0.03447273  0.05622342  0.75311277    -0.83760
C75         C  0.47675878  0.02574797  0.76107358     1.03890
O76         O  0.43478895  0.48956992  0.74005778    -0.76580
O77         O  0.44420502  0.38569534  0.75092468    -0.76730
C78         C  0.47055996  0.35304029  0.75492489     1.03850
Cr79       Cr  0.07217030  0.43149408  0.70578458     1.93740
Cr80       Cr  0.06864781  0.05697205  0.70915827     1.93210
Cr81       Cr  0.44346534  0.42736360  0.71000587     1.39100
O82         O  0.02802920  0.47183891  0.70835699    -1.21810
C83         C  0.43162453  0.07239224  0.52375227     0.04410
C84         C  0.37409166  0.03134146  0.50704573    -0.11740
C85         C  0.36345677  0.04182424  0.47393921     0.01910
C86         C  0.40993088  0.09715101  0.45766869    -0.10260
C87         C  0.46626577  0.14083553  0.47434842     0.04410
C88         C  0.47882849  0.12551879  0.50618297    -0.09680
H89         H  0.33407450  0.99416562  0.52055156     0.10000
H90         H  0.39935291  0.10949257  0.43347368     0.07530
H91         H  0.52341815  0.15860461  0.51802562     0.07380
C92         C  0.34085194  0.37944442  0.39636006     0.04410
C93         C  0.32795859  0.42371359  0.41167398    -0.11740
C94         C  0.30034640  0.41147735  0.44351389     0.01910
C95         C  0.28801924  0.35509231  0.46024933    -0.10260
C96         C  0.30043621  0.31026969  0.44469100     0.04410
C97         C  0.32868685  0.32396505  0.41315822    -0.09680
H98         H  0.33367842  0.46452337  0.39755127     0.10000
H99         H  0.26307090  0.34318321  0.48384040     0.07530
H100        H  0.33508785  0.28827288  0.40020605     0.07380
C101        C  0.21780690  0.06826404  0.51929708     0.04410
C102        C  0.23297173  0.12618116  0.50371401    -0.11740
C103        C  0.26221343  0.14182787  0.47233972     0.01910
C104        C  0.27439108  0.09778894  0.45599111    -0.10260
C105        C  0.26036343  0.04012951  0.47158597     0.04410
C106        C  0.22991460  0.02468037  0.50266719    -0.09680
H107        H  0.22785070  0.16192884  0.51740477     0.10000
H108        H  0.30062175  0.11111665  0.43276988     0.07530
H109        H  0.22123421  0.98136799  0.51526892     0.07380
C110        C  0.12694894  0.37727303  0.39459393     0.04410
C111        C  0.18165845  0.42332551  0.41140666    -0.11740
C112        C  0.19694623  0.41063126  0.44317951     0.01910
C113        C  0.15306368  0.35433408  0.45996341    -0.10260
C114        C  0.09683147  0.30848181  0.44407506     0.04410
C115        C  0.08492967  0.32023158  0.41141748    -0.09680
H116        H  0.21549241  0.46695209  0.39885682     0.10000
H117        H  0.16565129  0.34336022  0.48398197     0.07530
H118        H  0.04575236  0.28160168  0.39808821     0.07380
C119        C  0.00019411  0.20945956  0.46442908     0.01850
C120        C  0.06301119  0.24077930  0.45568012     0.01850
C121        C  0.29614395  0.50782922  0.46201495     0.01850
C122        C  0.26538849  0.44500333  0.45320392     0.01850
C123        C  0.12444821  0.16440873  0.39761681     0.04410
C124        C  0.08045795  0.17544922  0.41460737    -0.11740
C125        C  0.09566845  0.20538668  0.44581638     0.01910
C126        C  0.15320205  0.21922697  0.46140093    -0.10260
C127        C  0.19744875  0.20764131  0.44486921     0.04410
C128        C  0.18240765  0.17981957  0.41317092    -0.09680
H129        H  0.03684220  0.16629019  0.40228514     0.10000
H130        H  0.16625180  0.24482032  0.48480734     0.07530
H131        H  0.21867170  0.17589003  0.39933130     0.07380
C132        C  0.43425606  0.28498102  0.52123441     0.04410
C133        C  0.47807865  0.27123202  0.50613561    -0.11740
C134        C  0.46618260  0.24394035  0.47424309     0.01910
C135        C  0.41001439  0.23184216  0.45742111    -0.10260
C136        C  0.36534109  0.24469456  0.47283358     0.04410
C137        C  0.37920252  0.27342685  0.50425044    -0.09680
H138        H  0.51853695  0.27654353  0.52036916     0.10000
H139        H  0.39828386  0.20699217  0.43381640     0.07530
H140        H  0.34371302  0.28028661  0.51707632     0.07380
C141        C  0.26567184  0.24212856  0.45499080     0.01850
C142        C  0.29719241  0.21026504  0.46247810     0.01850
O143        O  0.02204133  0.05816145  0.16884033    -0.84060
O144        O  0.40947549  0.45452433  0.18329359    -0.81110
C145        C  0.40762742  0.41460674  0.16212380     0.99400
O146        O  0.44061680  0.38873947  0.16632822    -0.81140
O147        O  0.04343367  0.37858471  0.17645177    -0.83790
C148        C  0.08206085  0.42101736  0.15638614     1.03920
O149        O  0.11277436  0.47809678  0.16537382    -0.76550
O150        O  0.12110272  0.08852850  0.18107952    -0.76740
C151        C  0.07990399  0.08772759  0.16103490     1.03880
O152        O  0.05316524  0.08825263  0.23946739    -0.84060
O153        O  0.44815076  0.47808276  0.25352345    -0.81120
C154        C  0.41705545  0.41942595  0.25937748     0.99420
O155        O  0.41102240  0.37924132  0.23729076    -0.81150
O156        O  0.01954560  0.37968098  0.24794930    -0.83760
C157        C  0.07719556  0.40634185  0.25566325     1.03890
O158        O  0.11904028  0.44636272  0.23575141    -0.76580
O159        O  0.11642401  0.05135447  0.25143709    -0.76730
C160        C  0.09030193  0.08250085  0.25975087     1.03850
Cr161      Cr  0.48604275  0.01672361  0.21108662     1.93740
Cr162      Cr  0.48200610  0.38760659  0.20711306     1.93210
Cr163      Cr  0.11143221  0.01321858  0.20842490     1.39100
O164        O  0.02653490  0.47244238  0.20883015    -1.21810
C165        C  0.08568635  0.15344712  0.30478079     0.24880
C166        C  0.10130389  0.10754252  0.29439205    -0.23230
C167        C  0.12402789  0.08082115  0.31845847     0.19790
C168        C  0.12852384  0.09741549  0.35186638     0.24820
C169        C  0.11390149  0.14374754  0.36226590    -0.23170
C170        C  0.09304755  0.17230586  0.33834365     0.19720
F171        F  0.08154811  0.21973121  0.34716805    -0.13130
F172        F  0.06450854  0.18090637  0.28248608    -0.15490
F173        F  0.14627289  0.06698749  0.37426617    -0.15490
F174        F  0.13945945  0.03590659  0.31017739    -0.13130
C175        C  0.16709610  0.41280443  0.33522483     0.24880
C176        C  0.11631387  0.38468929  0.35850807    -0.23230
C177        C  0.05378426  0.35979806  0.34661053     0.19790
C178        C  0.04191220  0.36076467  0.31280939     0.24820
C179        C  0.09241915  0.39310569  0.28976984    -0.23170
C180        C  0.15527962  0.41846928  0.30139238     0.19720
F181        F  0.20531572  0.44890054  0.28017561    -0.13130
F182        F  0.22820696  0.43412202  0.34483278    -0.15490
F183        F  0.97986092  0.33183620  0.30316971    -0.15490
F184        F  0.00327786  0.33582990  0.36780519    -0.13130
C185        C  0.31235610  0.35756395  0.33602733     0.24880
C186        C  0.35902517  0.38649228  0.36110706    -0.23230
C187        C  0.42341638  0.42094541  0.35252778     0.19790
C188        C  0.44117378  0.42834701  0.31917403     0.24820
C189        C  0.39506891  0.40090147  0.29381604    -0.23170
C190        C  0.33037457  0.36485548  0.30233975     0.19720
F191        F  0.28501387  0.33970873  0.27824265    -0.13130
F192        F  0.24959778  0.32354460  0.34424004    -0.15490
F193        F  0.50390382  0.46295438  0.31138813    -0.15490
F194        F  0.46898232  0.44787772  0.37647982    -0.13130
C195        C  0.47098110  0.38402157  0.59863080     0.24880
C196        C  0.45463410  0.33814431  0.62393169    -0.23230
C197        C  0.43062510  0.27395827  0.61537836     0.19790
C198        C  0.42339363  0.25628383  0.58167636     0.24820
C199        C  0.44088132  0.30287193  0.55654497    -0.23170
C200        C  0.46331001  0.36648166  0.56520440     0.19720
F201        F  0.47949809  0.41178140  0.54123788    -0.13130
F202        F  0.49725570  0.44658472  0.60646203    -0.15490
F203        F  0.39976176  0.19404736  0.57345284    -0.15490
F204        F  0.91738030  0.22942480  0.63940128    -0.13130
C205        C  0.20986378  0.03488042  0.61249334     0.24880
C206        C  0.16027917  0.04556326  0.62220026    -0.23230
C207        C  0.12973077  0.06264112  0.59754383     0.19790
C208        C  0.14693416  0.06731651  0.56419524     0.24820
C209        C  0.19680633  0.05757716  0.55450298    -0.23170
C210        C  0.22866525  0.04178243  0.57894312     0.19720
F211        F  0.27928824  0.03512930  0.57056754    -0.13130
F212        F  0.24121858  0.01956224  0.63546923    -0.15490
F213        F  0.11418898  0.08090518  0.54118831    -0.15490
F214        F  0.08158475  0.07345337  0.60538352    -0.13130
C215        C  0.40568085  0.49032541  0.60783207     0.24880
C216        C  0.44580097  0.04050022  0.62950972    -0.23230
C217        C  0.47832581  0.10292689  0.61662577     0.19790
C218        C  0.47329528  0.11417707  0.58261776     0.24820
C219        C  0.43822266  0.06264610  0.56028100    -0.23170
C220        C  0.40576622  0.00051471  0.57373071     0.19720
F221        F  0.37618094  0.44811968  0.55398445    -0.13130
F222        F  0.36942684  0.42929810  0.61889589    -0.15490
F223        F  0.00321130  0.17568882  0.57202046    -0.15490
F224        F  0.01671246  0.15293400  0.63655047    -0.13130
C225        C  0.05803865  0.11423397  0.07027651     0.24880
C226        C  0.12054524  0.14687323  0.05763215    -0.23230
C227        C  0.17100518  0.16295949  0.08056386     0.19790
C228        C  0.15911137  0.14698439  0.11454711     0.24820
C229        C  0.09650773  0.11612472  0.12686514    -0.23170
C230        C  0.04684457  0.10316577  0.10425430     0.19720
F231        F  0.98606291  0.07826068  0.11470393    -0.13130
F232        F  0.00652895  0.09048628  0.04978590    -0.15490
F233        F  0.20887178  0.16038238  0.13506876    -0.15490
F234        F  0.23224969  0.19369055  0.07056429    -0.13130
C235        C  0.11430026  0.45743774  0.09773548     0.24880
C236        C  0.09007756  0.40702331  0.12122613    -0.23230
C237        C  0.07132510  0.34519417  0.10995516     0.19790
C238        C  0.07899601  0.33472254  0.07626533     0.24820
C239        C  0.10284302  0.38559808  0.05291086    -0.23170
C240        C  0.11901540  0.44662606  0.06417066     0.19720
F241        F  0.13917053  0.49644320  0.04259020    -0.13130
F242        F  0.13276035  0.51803996  0.10692325    -0.15490
F243        F  0.06534020  0.27528988  0.06698286    -0.15490
F244        F  0.04725077  0.29525059  0.13156462    -0.13130
C245        C  0.19466638  0.10390684  0.80299793     0.24880
C246        C  0.17444832  0.04369372  0.78901214    -0.23230
C247        C  0.16796792  0.49412724  0.81063096     0.19790
C248        C  0.17754419  0.00366005  0.84443041     0.24820
C249        C  0.20133619  0.06459543  0.85888178    -0.23170
C250        C  0.20882577  0.11459589  0.83718767     0.19720
F251        F  0.22727334  0.17378680  0.84841666    -0.13130
F252        F  0.19908532  0.15234378  0.78388827    -0.15490
F253        F  0.15526627  0.45000466  0.86403191    -0.15490
F254        F  0.15283619  0.43610230  0.79857401    -0.13130
C255        C  0.35865256  0.34397062  0.11345305     0.24880
C256        C  0.37196448  0.39998977  0.13034947    -0.23230
C257        C  0.36841808  0.44781377  0.11268903     0.19790
C258        C  0.36294588  0.44480830  0.07782729     0.24820
C259        C  0.35156056  0.38909607  0.05993090    -0.23170
C260        C  0.34920646  0.33863378  0.07911335     0.19720
F261        F  0.34115490  0.28426623  0.06539908    -0.13130
F262        F  0.35808113  0.29471156  0.13013119    -0.15490
F263        F  0.37452736  0.49923228  0.06210890    -0.15490
F264        F  0.37411112  0.49946667  0.12897590    -0.13130
C265        C  0.39267423  0.28649403  0.83701470     0.24880
C266        C  0.44450598  0.29336303  0.85649307    -0.23230
C267        C  0.50213618  0.30994672  0.83927371     0.19790
C268        C  0.00632001  0.31742096  0.80456058     0.24820
C269        C  0.45697225  0.31740599  0.78659755    -0.23170
C270        C  0.39922021  0.29926588  0.80293253     0.19720
F271        F  0.34910608  0.29603014  0.78594359    -0.13130
F272        F  0.33515844  0.26880696  0.85037290    -0.15490
F273        F  0.06014745  0.32823567  0.78871495    -0.15490
F274        F  0.05642661  0.32342785  0.85566951    -0.13130
C275        C  0.40969275  0.03803275  0.80519502     0.24880
C276        C  0.46091198  0.02974502  0.79610980    -0.23230
C277        C  0.50077820  0.02776875  0.82116735     0.19790
C278        C  0.49188774  0.03717748  0.85449038     0.24820
C279        C  0.44201013  0.04725844  0.86356484    -0.23170
C280        C  0.40031132  0.04688294  0.83882388     0.19720
F281        F  0.35200949  0.05734731  0.84715071    -0.13130
F282        F  0.37062328  0.04012825  0.78156579    -0.15490
F283        F  0.53163627  0.03585277  0.87799486    -0.15490
F284        F  0.04799187  0.01552518  0.81336451    -0.13130
C285        C  0.43380128  0.55904673  0.89874483     0.04410
C286        C  0.47975313  0.61516027  0.91453222    -0.11740
C287        C  0.46646109  0.63323774  0.94539224     0.01910
C288        C  0.40819579  0.59202603  0.96127723    -0.10260
C289        C  0.36197856  0.53602425  0.94543634     0.04410
C290        C  0.37598047  0.51905162  0.91464830    -0.09680
H291        H  0.52233863  0.64842935  0.90097406     0.10000
H292        H  0.39600492  0.60708672  0.98411632     0.07530
H293        H  0.33930848  0.47775253  0.90152022     0.07380
C294        C  0.43733863  0.77917016  0.89368746     0.04410
C295        C  0.47437081  0.75627568  0.90885386    -0.11740
C296        C  0.46442124  0.73481875  0.94180039     0.01910
C297        C  0.41197954  0.72968166  0.95936999    -0.10260
C298        C  0.37082050  0.74746990  0.94419592     0.04410
C299        C  0.38799391  0.77843619  0.91307697    -0.09680
H300        H  0.50797515  0.74915998  0.89461647     0.10000
H301        H  0.39998305  0.70662123  0.98352096     0.07530
H302        H  0.35865640  0.79664764  0.90351208     0.07380
C303        C  0.33703172  0.88181495  0.02274762     0.04410
C304        C  0.31413961  0.91877135  0.00730596    -0.11740
C305        C  0.29268914  0.90860198  0.97433936     0.01910
C306        C  0.28755250  0.85609420  0.95691613    -0.10260
C307        C  0.30522384  0.81502407  0.97222177     0.04410
C308        C  0.33636006  0.83246543  0.00324628    -0.09680
H309        H  0.30654679  0.95228087  0.02122878     0.10000
H310        H  0.26422448  0.84376757  0.93285831     0.07530
H311        H  0.35478898  0.80313608  0.01233047     0.07380
C312        C  0.22181606  0.57492137  0.89532941     0.04410
C313        C  0.23920032  0.53336479  0.91101741    -0.11740
C314        C  0.26318436  0.54338137  0.94356083     0.01910
C315        C  0.27651470  0.59997699  0.95992889    -0.10260
C316        C  0.26513188  0.64514951  0.94402674     0.04410
C317        C  0.23269938  0.62961425  0.91335450    -0.09860
H318        H  0.24053403  0.49587418  0.89720401     0.10000
H319        H  0.30099764  0.61148007  0.98366435     0.07530
H320        H  0.22070857  0.66342835  0.90317882     0.07380
C321        C  0.11523222  0.87689418  0.01750275     0.04410
C322        C  0.07378851  0.82069091  0.00041236    -0.11740
C323        C  0.09205121  0.80600818  0.97012533     0.01910
C324        C  0.14901053  0.85162906  0.95478582    -0.10260
C325        C  0.19058097  0.90918473  0.97103649     0.04410
C326        C  0.17307085  0.92140297  0.00224579    -0.09680
H327        H  0.02995369  0.78516879  0.01214011     0.10000
H328        H  0.16425191  0.83940334  0.93201996     0.07530
H329        H  0.20801741  0.96239158  0.01620049     0.07380
C330        C  0.29376846  0.00620405  0.95476489     0.01850
C331        C  0.25958474  0.94276264  0.96261287     0.01850
C332        C  0.13163169  0.66759835  0.02159366     0.04410
C333        C  0.08940436  0.68325186  0.00542936    -0.11740
C334        C  0.10016515  0.70744487  0.97290101     0.01910
C335        C  0.15714111  0.72093216  0.95684781    -0.10260
C336        C  0.20232035  0.71005371  0.97316007     0.04410
C337        C  0.18693613  0.67894450  0.00422737    -0.09680
H338        H  0.05046259  0.68241006  0.01896939     0.10000
H339        H  0.16873593  0.74483331  0.93292409     0.07530
H340        H  0.22090780  0.66806647  0.01544863     0.07380
C341        C  0.06267036  0.73737655  0.96122750     0.01850
C342        C  0.99935904  0.70245074  0.95349207     0.01850
C343        C  0.30184003  0.71400224  0.95397989     0.01850
C344        C  0.27095732  0.74579150  0.96290103     0.01850
O345        O  0.03339416  0.89361493  0.66331421    -0.84060
O346        O  0.14312738  0.99948255  0.67736462    -0.81110
C347        C  0.13638161  0.53582870  0.65710755     0.99400
O348        O  0.10541148  0.56221497  0.66557468    -0.81140
O349        O  0.00051185  0.56472376  0.68318555    -0.83790
C350        C  0.46099611  0.52368313  0.66279482     1.03920
O351        O  0.43674451  0.96557542  0.66914143    -0.76550
O352        O  0.43505648  0.85604427  0.68034810    -0.76740
C353        C  0.47464519  0.86160268  0.65805785     1.03880
O354        O  0.01058573  0.85540694  0.73370515    -0.84060
O355        O  0.11424283  0.96789758  0.74801144    -0.81120
C356        C  0.14431737  0.52551074  0.75541166     0.99420
O357        O  0.14487028  0.56641341  0.73523320    -0.81150
O358        O  0.03419159  0.55590803  0.75317417    -0.83760
C359        C  0.47646915  0.52544542  0.76111286     1.03890
O360        O  0.43506175  0.98991439  0.74001239    -0.76580
O361        O  0.44452674  0.88613844  0.75098194    -0.76730
C362        C  0.47102338  0.85364343  0.75508257     1.03850
Cr363      Cr  0.07241355  0.93178818  0.70579414     1.93740
Cr364      Cr  0.06849665  0.55671813  0.70925737     1.93210
Cr365      Cr  0.44367357  0.92759694  0.71001919     1.39100
O366        O  0.02823453  0.97209300  0.70832765    -1.21810
C367        C  0.43161336  0.57240900  0.52379881     0.04410
C368        C  0.37407639  0.53136257  0.50709426    -0.11740
C369        C  0.36344023  0.54183341  0.47398682     0.01910
C370        C  0.40991469  0.59715432  0.45771229    -0.10260
C371        C  0.46625632  0.64083800  0.47438855     0.04410
C372        C  0.47882029  0.62552715  0.50622503    -0.09680
H373        H  0.33405373  0.49419918  0.52060173     0.10000
H374        H  0.39932977  0.60949573  0.43351874     0.07530
H375        H  0.52341268  0.65861298  0.51806492     0.07380
C376        C  0.34084584  0.87937327  0.39636930     0.04410
C377        C  0.32795795  0.92365389  0.41167305    -0.11740
C378        C  0.30033851  0.91143518  0.44351012     0.01910
C379        C  0.28800621  0.85506051  0.46025751    -0.10260
C380        C  0.30042024  0.81022542  0.44471230     0.04410
C381        C  0.32866891  0.82389724  0.41317760    -0.09680
H382        H  0.33368684  0.96446020  0.39754332     0.10000
H383        H  0.26305472  0.84316701  0.48384756     0.07530
H384        H  0.33506369  0.78819366  0.40023399     0.07380
C385        C  0.21782740  0.56825147  0.51939991     0.04410
C386        C  0.23296937  0.62616541  0.50381596    -0.11740
C387        C  0.26216984  0.64180483  0.47242965     0.01910
C388        C  0.27433217  0.59776656  0.45607047    -0.10260
C389        C  0.26033299  0.54011462  0.47166215     0.04410
C390        C  0.22992526  0.52466980  0.50275642    -0.09680
H391        H  0.22786071  0.66191515  0.51751186     0.10000
H392        H  0.30054540  0.61109751  0.43284332     0.07530
H393        H  0.22126316  0.48135949  0.51535314     0.07380
C394        C  0.12692597  0.87724388  0.39459155     0.04410
C395        C  0.18164593  0.92329343  0.41139757    -0.11740
C396        C  0.19694349  0.91060374  0.44316828     0.01910
C397        C  0.15305641  0.85431939  0.45996059    -0.10260
C398        C  0.09680698  0.80847222  0.44408216     0.04410
C399        C  0.08489857  0.82021412  0.41142345    -0.09680
H400        H  0.21548059  0.96691432  0.39884366     0.10000
H401        H  0.16564974  0.84334995  0.48397864     0.07530
H402        H  0.04571095  0.78158455  0.39809981     0.07380
C403        C  0.00017940  0.70946135  0.46446842     0.01850
C404        C  0.06298698  0.74077244  0.45569319     0.01850
C405        C  0.29616363  0.00782183  0.46196236     0.01850
C406        C  0.26539073  0.94497749  0.45318615     0.01850
C407        C  0.12444758  0.66441452  0.39762434     0.04410
C408        C  0.08045362  0.67545921  0.41461118    -0.11740
C409        C  0.09564494  0.70537605  0.44582656     0.01910
C410        C  0.15316834  0.71919737  0.46141940    -0.10260
C411        C  0.19742050  0.70760680  0.44489465     0.04410
C412        C  0.18239468  0.67980435  0.41319015    -0.09680
H413        H  0.03684675  0.66631302  0.40228377     0.10000
H414        H  0.16620994  0.74478369  0.48482810     0.07530
H415        H  0.21866308  0.67587337  0.39935601     0.07380
C416        C  0.43422714  0.78490987  0.52132406     0.04410
C417        C  0.47806029  0.77119468  0.50620518    -0.11740
C418        C  0.46616768  0.74393806  0.47430229     0.01910
C419        C  0.40998609  0.73183999  0.45749171    -0.10260
C420        C  0.36530521  0.74466650  0.47291947     0.04410
C421        C  0.37916417  0.77335855  0.50434761    -0.09680
H422        H  0.51852916  0.77650835  0.52042904     0.10000
H423        H  0.39824957  0.70700420  0.43388245     0.07530
H424        H  0.34367259  0.78020093  0.51718304     0.07380
C425        C  0.26564300  0.74209320  0.45502770     0.01850
C426        C  0.29715300  0.71023781  0.46256107     0.01850
O427        O  0.02201998  0.55812317  0.16883529    -0.84060
O428        O  0.40948534  0.95457174  0.18331239    -0.81110
C429        C  0.40763351  0.91466198  0.16213730     0.99400
O430        O  0.44062728  0.88879667  0.16633131    -0.81140
O431        O  0.04342934  0.87861115  0.17644968    -0.83790
C432        C  0.08206863  0.92104483  0.15638826     1.03920
O433        O  0.11278366  0.97812254  0.16537778    -0.76550
O434        O  0.12108335  0.58849910  0.18107066    -0.76740
C435        C  0.07987886  0.58768536  0.16102587     1.03880
O436        O  0.05312842  0.58821321  0.23946830    -0.84060
O437        O  0.44818208  0.97812317  0.25353720    -0.81120
C438        C  0.41707529  0.91946331  0.25938612     0.99420
O439        O  0.41103044  0.87928450  0.23729289    -0.81150
O440        O  0.01954102  0.87969696  0.24794737    -0.83760
C441        C  0.07718981  0.90634949  0.25566243     1.03890
O442        O  0.11903939  0.94637371  0.23575336    -0.76580
O443        O  0.11640957  0.55133871  0.25143426    -0.76730
C444        C  0.09027687  0.58247492  0.25975050     1.03850
Cr445      Cr  0.48601964  0.51668252  0.21107766     1.93740
Cr446      Cr  0.48200880  0.88764098  0.20711337     1.93210
Cr447      Cr  0.11142094  0.51319733  0.20842078     1.39100
O448        O  0.02654776  0.97247446  0.20883450    -1.21810
C449        C  0.08567242  0.65343347  0.30478237     0.24880
C450        C  0.10128706  0.60752650  0.29439301    -0.23230
C451        C  0.12402343  0.58081746  0.31846009     0.19790
C452        C  0.12853376  0.59742448  0.35186819     0.24820
C453        C  0.11391019  0.64375630  0.36226910    -0.23170
C454        C  0.09304561  0.67230372  0.33834503     0.19720
F455        F  0.08154481  0.71972911  0.34716716    -0.13130
F456        F  0.06448500  0.68088436  0.28248802    -0.15490
F457        F  0.14629133  0.56700256  0.37426714    -0.15490
F458        F  0.13945443  0.53590251  0.31017951    -0.13130
C459        C  0.16707579  0.91276855  0.33522162     0.24880
C460        C  0.11629155  0.88465513  0.35850446    -0.23230
C461        C  0.05376394  0.85977333  0.34660588     0.19790
C462        C  0.04189624  0.86075307  0.31280488     0.24820
C463        C  0.09240638  0.89309799  0.28976729    -0.23170
C464        C  0.15526430  0.91844864  0.30139043     0.19720
F465        F  0.20530310  0.94888201  0.28017543    -0.13130
F466        F  0.22818444  0.93407022  0.34482833    -0.15490
F467        F  0.97984635  0.83183414  0.30316362    -0.15490
F468        F  0.00325579  0.83580568  0.36779920    -0.13130
C469        C  0.31236506  0.85751348  0.33603258     0.24880
C470        C  0.35902864  0.88641872  0.36111673    -0.23230
C471        C  0.42342036  0.92089951  0.35253999     0.19790
C472        C  0.44118314  0.92834649  0.31918578     0.24820
C473        C  0.39508391  0.90092050  0.29382403    -0.23170
C474        C  0.33038934  0.86484774  0.30234462     0.19720
F475        F  0.28503237  0.83971815  0.27824503    -0.13130
F476        F  0.24960536  0.82348374  0.34424134    -0.15490
F477        F  0.50391329  0.96297373  0.31140366    -0.15490
F478        F  0.46898131  0.94782221  0.37649504    -0.13130
C479        C  0.47106262  0.88399936  0.59871477     0.24880
C480        C  0.45470394  0.83813666  0.62402579    -0.23230
C481        C  0.43064978  0.77393795  0.61547990     0.19790
C482        C  0.42338605  0.75624049  0.58177792     0.24820
C483        C  0.44088297  0.80281593  0.55663741    -0.23170
C484        C  0.46336096  0.86643791  0.56529021     0.19720
F485        F  0.47956806  0.91173063  0.54131788    -0.13130
F486        F  0.49737698  0.94657197  0.60653439    -0.15490
F487        F  0.39971952  0.69399446  0.57356377    -0.15490
F488        F  0.91738738  0.72941093  0.63950870    -0.13130
C489        C  0.20986688  0.53478744  0.61259931     0.24880
C490        C  0.16028776  0.54547167  0.62231715    -0.23230
C491        C  0.12976041  0.56259142  0.59766703     0.19790
C492        C  0.14697099  0.56729796  0.56431649     0.24820
C493        C  0.19683513  0.55755336  0.55461248    -0.23170
C494        C  0.22867825  0.54172311  0.57904682     0.19720
F495        F  0.27929369  0.53506318  0.57066378    -0.13130
F496        F  0.24120663  0.51943468  0.63556719    -0.15490
F497        F  0.11423216  0.58091355  0.54131831    -0.15490
F498        F  0.08162375  0.57341393  0.60551425    -0.13130
C499        C  0.40575913  0.99031221  0.60778337     0.24880
C500        C  0.44576874  0.54049159  0.62955822    -0.23230
C501        C  0.47834669  0.60291764  0.61667384     0.19790
C502        C  0.47331805  0.61418152  0.58266607     0.24820
C503        C  0.43821022  0.56265980  0.56032856    -0.23170
C504        C  0.40571069  0.50053094  0.57377962     0.19720
F505        F  0.37625618  0.94810523  0.55393312    -0.13130
F506        F  0.36956393  0.92927886  0.61884958    -0.15490
F507        F  0.00326664  0.67569507  0.57207040    -0.15490
F508        F  0.01677421  0.65290793  0.63659794    -0.13130
C509        C  0.05798889  0.61412638  0.07025898     0.24880
C510        C  0.12049510  0.64682309  0.05762185    -0.23230
C511        C  0.17096171  0.66296333  0.08055647     0.19790
C512        C  0.15907355  0.64697913  0.11453866     0.24820
C513        C  0.09646650  0.61606111  0.12685165    -0.23170
C514        C  0.04679231  0.60303936  0.10423512     0.19720
F515        F  0.98599856  0.57805547  0.11467717    -0.13130
F516        F  0.00648708  0.59035102  0.04976175    -0.15490
F517        F  0.20884382  0.66043859  0.13506531    -0.15490
F518        F  0.23220786  0.69377058  0.07056023    -0.13130
C519        C  0.11432715  0.95747125  0.09774114     0.24880
C520        C  0.09010223  0.90705539  0.12123073    -0.23230
C521        C  0.07137185  0.84523120  0.10996155     0.19790
C522        C  0.07906400  0.83476592  0.07627402     0.24820
C523        C  0.10290715  0.88564231  0.05291940    -0.23170
C524        C  0.11906253  0.94666578  0.06417800     0.19720
F525        F  0.13921320  0.99648287  0.04259795    -0.13130
F526        F  0.13276554  0.01806813  0.10692811    -0.15490
F527        F  0.06542957  0.77533837  0.06699410    -0.15490
F528        F  0.04729785  0.79528703  0.13157066    -0.13130
C529        C  0.19498927  0.60353471  0.80305675     0.24880
C530        C  0.17359681  0.54292540  0.78928638    -0.23230
C531        C  0.16998156  0.99512256  0.81012629     0.19790
C532        C  0.17587613  0.50307322  0.84490107     0.24820
C533        C  0.20084410  0.56432811  0.85908905    -0.23170
C534        C  0.20933784  0.61443515  0.83722053     0.19720
F535        F  0.22921975  0.67402823  0.84827185    -0.13130
F536        F  0.20059330  0.65223493  0.78374312    -0.15490
F537        F  0.15750417  0.95037438  0.86330327    -0.15490
F538        F  0.15623261  0.93765197  0.79779267    -0.13130
C539        C  0.35861454  0.84401571  0.11348128     0.24880
C540        C  0.37195925  0.90005038  0.13036944    -0.23230
C541        C  0.36845297  0.94789032  0.11270261     0.19790
C542        C  0.36297066  0.94487037  0.07784167     0.24820
C543        C  0.35155488  0.88914095  0.05995352    -0.23170
C544        C  0.34917989  0.83867497  0.07914208     0.19720
F545        F  0.34112943  0.78430259  0.06543541    -0.13130
F546        F  0.35801540  0.79474953  0.13016666    -0.15490
F547        F  0.37457407  0.99929417  0.06211510    -0.15490
F548        F  0.37419261  0.99956798  0.12898276    -0.13130
C549        C  0.39323184  0.78758072  0.83723888     0.24880
C550        C  0.44499929  0.79443480  0.85676577    -0.23230
C551        C  0.50276751  0.81129911  0.83963300     0.19790
C552        C  0.00712789  0.81890082  0.80492874     0.24820
C553        C  0.45761732  0.81834916  0.78685455    -0.23170
C554        C  0.39978989  0.80009336  0.80313493     0.19720
F555        F  0.34962003  0.79657860  0.78607244    -0.13130
F556        F  0.33579280  0.77027782  0.85057228    -0.15490
F557        F  0.06128085  0.83040081  0.78920702    -0.15490
F558        F  0.05700664  0.82493349  0.85613007    -0.13130
C559        C  0.40950468  0.53801599  0.80518584     0.24880
C560        C  0.46060468  0.52951330  0.79613140    -0.23230
C561        C  0.50040387  0.52746788  0.82120325     0.19790
C562        C  0.49157765  0.53700985  0.85451063     0.24820
C563        C  0.44182547  0.54729930  0.86355468    -0.23170
C564        C  0.40017756  0.54699304  0.83880411     0.19720
F565        F  0.35197815  0.55762818  0.84711273    -0.13130
F566        F  0.37051387  0.54020066  0.78153779    -0.15490
F567        F  0.53126047  0.53560534  0.87803036    -0.15490
F568        F  0.04750262  0.51504743  0.81342673    -0.13130
C569        C  0.93395379  0.05895630  0.89876652     0.04410
C570        C  0.97988660  0.11506732  0.91456621    -0.11740
C571        C  0.96653258  0.13317401  0.94540298     0.01910
C572        C  0.90824206  0.09199098  0.96126479    -0.10260
C573        C  0.86204929  0.03598967  0.94542235     0.04410
C574        C  0.87609947  0.01897997  0.91465380    -0.09680
H575        H  0.02249575  0.14833054  0.90102293     0.10000
H576        H  0.89600452  0.10709364  0.98407588     0.07530
H577        H  0.83943979  0.97767911  0.90152233     0.07380
C578        C  0.93702916  0.27846239  0.89346136     0.04410
C579        C  0.97415857  0.25577044  0.90870979    -0.11740
C580        C  0.96439182  0.23468218  0.94172095     0.01910
C581        C  0.91201492  0.22970096  0.95929746    -0.10260
C582        C  0.87079441  0.24736781  0.94407542     0.04410
C583        C  0.88780636  0.27797673  0.91285652    -0.09680
H584        H  0.00767968  0.24848462  0.89450487     0.10000
H585        H  0.90008810  0.20680739  0.98349330     0.07530
H586        H  0.85841603  0.29607573  0.90322273     0.07380
C587        C  0.83704540  0.38178201  0.02272278     0.04410
C588        C  0.81413381  0.41872828  0.00728944    -0.11740
C589        C  0.79268564  0.40857525  0.97432312     0.01910
C590        C  0.78757127  0.35608144  0.95688983    -0.10260
C591        C  0.80527409  0.31501848  0.97218348     0.04410
C592        C  0.83640400  0.33245602  0.00321127    -0.09680
H593        H  0.80651714  0.45221331  0.02122062     0.10000
H594        H  0.76423096  0.34375387  0.93283523     0.07530
H595        H  0.85484368  0.30313380  0.01229313     0.07380
C596        C  0.72208581  0.07503881  0.89519199     0.04410
C597        C  0.73957895  0.03356000  0.91089414    -0.11740
C598        C  0.76329557  0.04342275  0.94349082     0.01910
C599        C  0.77649026  0.09993912  0.95989274    -0.10260
C600        C  0.76509870  0.14509841  0.94399065     0.04410
C601        C  0.73274355  0.12959364  0.91329690    -0.09860
H602        H  0.74131657  0.99630057  0.89708771     0.10000
H603        H  0.80092462  0.11142661  0.98364338     0.07530
H604        H  0.72072283  0.16341481  0.90319814     0.07380
C605        C  0.61517699  0.37685053  0.01749543     0.04410
C606        C  0.57373110  0.32065842  0.00039546    -0.11740
C607        C  0.59200883  0.30598183  0.97010982     0.01910
C608        C  0.64898325  0.35159609  0.95478260    -0.10260
C609        C  0.69055405  0.40913189  0.97104464     0.04410
C610        C  0.67303364  0.42134751  0.00225103    -0.09680
H611        H  0.52988920  0.28513588  0.01211726     0.10000
H612        H  0.66423623  0.33937398  0.93201941     0.07530
H613        H  0.70797938  0.46232680  0.01621182     0.07380
C614        C  0.79370305  0.50618623  0.95479977     0.01850
C615        C  0.75955318  0.44272716  0.96261606     0.01850
C616        C  0.63168992  0.16764754  0.02160124     0.04410
C617        C  0.58946763  0.18330907  0.00543829    -0.11740
C618        C  0.60020388  0.20746637  0.97290424     0.01910
C619        C  0.65716785  0.22093254  0.95684231    -0.10260
C620        C  0.70235666  0.21005989  0.97315156     0.04410
C621        C  0.68698691  0.17897752  0.00422802    -0.09680
H622        H  0.55054185  0.18249468  0.01898016     0.10000
H623        H  0.66874423  0.24480728  0.93291136     0.07530
H624        H  0.72096021  0.16809895  0.01544540     0.07380
C625        C  0.56267171  0.23735578  0.96122087     0.01850
C626        C  0.49936802  0.20238994  0.95347849     0.01850
C627        C  0.80184224  0.21395918  0.95392705     0.01850
C628        C  0.77099045  0.24577522  0.96287186     0.01850
O629        O  0.53327883  0.39358252  0.66324446    -0.84060
O630        O  0.64304576  0.49930120  0.67747413    -0.81110
C631        C  0.63639924  0.03596013  0.65698951     0.99400
O632        O  0.60542033  0.06234512  0.66545060    -0.81140
O633        O  0.50051665  0.06481731  0.68314319    -0.83790
C634        C  0.96104686  0.02373804  0.66275194     1.03920
O635        O  0.93661936  0.46550764  0.66917169    -0.76550
O636        O  0.93490763  0.35593416  0.68025363    -0.76740
C637        C  0.97453533  0.36157371  0.65796683     1.03880
O638        O  0.51017666  0.35493613  0.73354308    -0.84060
O639        O  0.61382950  0.46735440  0.74807729    -0.81120
C640        C  0.64483510  0.02610185  0.75523080     0.99420
O641        O  0.64518960  0.06688577  0.73504289    -0.81150
O642        O  0.53447274  0.05622342  0.75311277    -0.83760
C643        C  0.97675878  0.02574797  0.76107358     1.03890
O644        O  0.93478896  0.48956992  0.74005778    -0.76580
O645        O  0.94420501  0.38569534  0.75092468    -0.76730
C646        C  0.97055995  0.35304029  0.75492489     1.03850
Cr647      Cr  0.57217030  0.43149408  0.70578458     1.93740
Cr648      Cr  0.56864781  0.05697206  0.70915827     1.93210
Cr649      Cr  0.94346534  0.42736361  0.71000587     1.39100
O650        O  0.52802920  0.47183891  0.70835699    -1.21810
C651        C  0.93162454  0.07239224  0.52375227     0.04410
C652        C  0.87409167  0.03134146  0.50704573    -0.11740
C653        C  0.86345677  0.04182424  0.47393921     0.01910
C654        C  0.90993088  0.09715101  0.45766869    -0.10260
C655        C  0.96626577  0.14083553  0.47434842     0.04410
C656        C  0.97882849  0.12551879  0.50618297    -0.09680
H657        H  0.83407451  0.99416562  0.52055156     0.10000
H658        H  0.89935291  0.10949257  0.43347368     0.07530
H659        H  0.02341816  0.15860461  0.51802562     0.07380
C660        C  0.84085194  0.37944442  0.39636006     0.04410
C661        C  0.82795859  0.42371359  0.41167398    -0.11740
C662        C  0.80034640  0.41147735  0.44351389     0.01910
C663        C  0.78801924  0.35509231  0.46024933    -0.10260
C664        C  0.80043621  0.31026969  0.44469100     0.04410
C665        C  0.82868685  0.32396505  0.41315822    -0.09680
H666        H  0.83367842  0.46452337  0.39755128     0.10000
H667        H  0.76307090  0.34318321  0.48384040     0.07530
H668        H  0.83508785  0.28827289  0.40020605     0.07380
C669        C  0.71780690  0.06826405  0.51929708     0.04410
C670        C  0.73297173  0.12618116  0.50371401    -0.11740
C671        C  0.76221343  0.14182787  0.47233972     0.01910
C672        C  0.77439108  0.09778894  0.45599111    -0.10260
C673        C  0.76036343  0.04012952  0.47158597     0.04410
C674        C  0.72991460  0.02468038  0.50266719    -0.09680
H675        H  0.72785070  0.16192884  0.51740477     0.10000
H676        H  0.80062175  0.11111665  0.43276988     0.07530
H677        H  0.72123421  0.98136799  0.51526892     0.07380
C678        C  0.62694894  0.37727303  0.39459393     0.04410
C679        C  0.68165845  0.42332551  0.41140666    -0.11740
C680        C  0.69694623  0.41063126  0.44317951     0.01910
C681        C  0.65306368  0.35433408  0.45996341    -0.10260
C682        C  0.59683147  0.30848181  0.44407506     0.04410
C683        C  0.58492967  0.32023158  0.41141748    -0.09680
H684        H  0.71549241  0.46695210  0.39885682     0.10000
H685        H  0.66565129  0.34336022  0.48398197     0.07530
H686        H  0.54575236  0.28160168  0.39808821     0.07380
C687        C  0.50019411  0.20945956  0.46442908     0.01850
C688        C  0.56301119  0.24077929  0.45568012     0.01850
C689        C  0.79614394  0.50782922  0.46201495     0.01850
C690        C  0.76538849  0.44500333  0.45320392     0.01850
C691        C  0.62444821  0.16440873  0.39761681     0.04410
C692        C  0.58045795  0.17544922  0.41460737    -0.11740
C693        C  0.59566845  0.20538668  0.44581638     0.01910
C694        C  0.65320205  0.21922697  0.46140093    -0.10260
C695        C  0.69744875  0.20764131  0.44486921     0.04410
C696        C  0.68240765  0.17981957  0.41317092    -0.09680
H697        H  0.53684220  0.16629018  0.40228514     0.10000
H698        H  0.66625180  0.24482032  0.48480734     0.07530
H699        H  0.71867170  0.17589003  0.39933130     0.07380
C700        C  0.93425606  0.28498102  0.52123441     0.04410
C701        C  0.97807865  0.27123202  0.50613561    -0.11740
C702        C  0.96618260  0.24394035  0.47424309     0.01910
C703        C  0.91001439  0.23184216  0.45742111    -0.10260
C704        C  0.86534109  0.24469456  0.47283358     0.04410
C705        C  0.87920252  0.27342685  0.50425043    -0.09680
H706        H  0.01853695  0.27654353  0.52036916     0.10000
H707        H  0.89828386  0.20699218  0.43381640     0.07530
H708        H  0.84371302  0.28028662  0.51707632     0.07380
C709        C  0.76567185  0.24212856  0.45499080     0.01850
C710        C  0.79719241  0.21026504  0.46247810     0.01850
O711        O  0.52204133  0.05816145  0.16884033    -0.84060
O712        O  0.90947548  0.45452433  0.18329359    -0.81110
C713        C  0.90762741  0.41460673  0.16212380     0.99400
O714        O  0.94061679  0.38873947  0.16632822    -0.81140
O715        O  0.54343367  0.37858471  0.17645177    -0.83790
C716        C  0.58206085  0.42101736  0.15638614     1.03920
O717        O  0.61277436  0.47809678  0.16537383    -0.76550
O718        O  0.62110272  0.08852850  0.18107952    -0.76740
C719        C  0.57990399  0.08772758  0.16103490     1.03880
O720        O  0.55316524  0.08825263  0.23946739    -0.84060
O721        O  0.94815076  0.47808276  0.25352345    -0.81120
C722        C  0.91705545  0.41942595  0.25937748     0.99420
O723        O  0.91102240  0.37924132  0.23729076    -0.81150
O724        O  0.51954559  0.37968098  0.24794931    -0.83760
C725        C  0.57719555  0.40634184  0.25566325     1.03890
O726        O  0.61904028  0.44636271  0.23575141    -0.76580
O727        O  0.61642401  0.05135448  0.25143709    -0.76730
C728        C  0.59030193  0.08250085  0.25975087     1.03850
Cr729      Cr  0.98604275  0.01672361  0.21108662     1.93740
Cr730      Cr  0.98200610  0.38760659  0.20711306     1.93210
Cr731      Cr  0.61143222  0.01321858  0.20842490     1.39100
O732        O  0.52653490  0.47244238  0.20883015    -1.21810
C733        C  0.58568635  0.15344712  0.30478079     0.24880
C734        C  0.60130389  0.10754252  0.29439205    -0.23230
C735        C  0.62402789  0.08082115  0.31845847     0.19790
C736        C  0.62852384  0.09741549  0.35186638     0.24820
C737        C  0.61390149  0.14374754  0.36226590    -0.23170
C738        C  0.59304755  0.17230587  0.33834365     0.19720
F739        F  0.58154811  0.21973121  0.34716805    -0.13130
F740        F  0.56450854  0.18090637  0.28248608    -0.15490
F741        F  0.64627289  0.06698750  0.37426617    -0.15490
F742        F  0.63945946  0.03590660  0.31017739    -0.13130
C743        C  0.66709609  0.41280443  0.33522483     0.24880
C744        C  0.61631387  0.38468929  0.35850807    -0.23230
C745        C  0.55378426  0.35979807  0.34661053     0.19790
C746        C  0.54191220  0.36076467  0.31280939     0.24820
C747        C  0.59241914  0.39310569  0.28976984    -0.23170
C748        C  0.65527961  0.41846928  0.30139238     0.19720
F749        F  0.70531572  0.44890054  0.28017561    -0.13130
F750        F  0.72820696  0.43412202  0.34483278    -0.15490
F751        F  0.47986092  0.33183621  0.30316972    -0.15490
F752        F  0.50327786  0.33582991  0.36780520    -0.13130
C753        C  0.81235611  0.35756396  0.33602733     0.24880
C754        C  0.85902517  0.38649229  0.36110706    -0.23230
C755        C  0.92341638  0.42094541  0.35252778     0.19790
C756        C  0.94117378  0.42834701  0.31917403     0.24820
C757        C  0.89506892  0.40090147  0.29381605    -0.23170
C758        C  0.83037457  0.36485549  0.30233975     0.19720
F759        F  0.78501388  0.33970875  0.27824265    -0.13130
F760        F  0.74959778  0.32354462  0.34424004    -0.15490
F761        F  0.00390383  0.46295437  0.31138813    -0.15490
F762        F  0.96898232  0.44787770  0.37647982    -0.13130
C763        C  0.97098107  0.38402157  0.59863080     0.24880
C764        C  0.95463409  0.33814431  0.62393169    -0.23230
C765        C  0.93062512  0.27395827  0.61537836     0.19790
C766        C  0.92339365  0.25628383  0.58167636     0.24820
C767        C  0.94088132  0.30287193  0.55654497    -0.23170
C768        C  0.96330999  0.36648166  0.56520440     0.19720
F769        F  0.97949804  0.41178139  0.54123788    -0.13130
F770        F  0.99725566  0.44658472  0.60646203    -0.15490
F771        F  0.89976179  0.19404737  0.57345284    -0.15490
F772        F  0.41738026  0.22942479  0.63940128    -0.13130
C773        C  0.70986378  0.03488042  0.61249334     0.24880
C774        C  0.66027917  0.04556326  0.62220026    -0.23230
C775        C  0.62973076  0.06264112  0.59754383     0.19790
C776        C  0.64693416  0.06731651  0.56419524     0.24820
C777        C  0.69680633  0.05757716  0.55450298    -0.23170
C778        C  0.72866525  0.04178244  0.57894312     0.19720
F779        F  0.77928825  0.03512931  0.57056754    -0.13130
F780        F  0.74121858  0.01956225  0.63546923    -0.15490
F781        F  0.61418898  0.08090517  0.54118831    -0.15490
F782        F  0.58158474  0.07345337  0.60538352    -0.13130
C783        C  0.90568083  0.49032543  0.60783208     0.24880
C784        C  0.94580097  0.04050022  0.62950972    -0.23230
C785        C  0.97832582  0.10292688  0.61662577     0.19790
C786        C  0.97329529  0.11417707  0.58261776     0.24820
C787        C  0.93822267  0.06264609  0.56028100    -0.23170
C788        C  0.90576623  0.00051471  0.57373071     0.19720
F789        F  0.87618091  0.44811968  0.55398446    -0.13130
F790        F  0.86942681  0.42929811  0.61889590    -0.15490
F791        F  0.50321129  0.17568883  0.57202046    -0.15490
F792        F  0.51671245  0.15293401  0.63655047    -0.13130
C793        C  0.55803865  0.11423396  0.07027651     0.24880
C794        C  0.62054524  0.14687323  0.05763215    -0.23230
C795        C  0.67100518  0.16295950  0.08056386     0.19790
C796        C  0.65911137  0.14698440  0.11454711     0.24820
C797        C  0.59650773  0.11612471  0.12686514    -0.23170
C798        C  0.54684457  0.10316575  0.10425430     0.19720
F799        F  0.48606290  0.07826064  0.11470393    -0.13130
F800        F  0.50652896  0.09048626  0.04978589    -0.15490
F801        F  0.70887178  0.16038240  0.13506877    -0.15490
F802        F  0.73224970  0.19369058  0.07056429    -0.13130
C803        C  0.61430026  0.45743773  0.09773548     0.24880
C804        C  0.59007756  0.40702331  0.12122613    -0.23230
C805        C  0.57132510  0.34519416  0.10995516     0.19790
C806        C  0.57899601  0.33472253  0.07626533     0.24820
C807        C  0.60284302  0.38559807  0.05291086    -0.23170
C808        C  0.61901540  0.44662606  0.06417066     0.19720
F809        F  0.63917053  0.49644319  0.04259020    -0.13130
F810        F  0.63276035  0.51803996  0.10692325    -0.15490
F811        F  0.56534020  0.27528988  0.06698286    -0.15490
F812        F  0.54725078  0.29525059  0.13156462    -0.13130
C813        C  0.69466638  0.10390684  0.80299793     0.24880
C814        C  0.67444833  0.04369373  0.78901214    -0.23230
C815        C  0.66796792  0.49412724  0.81063096     0.19790
C816        C  0.67754420  0.00366006  0.84443040     0.24820
C817        C  0.70133620  0.06459543  0.85888178    -0.23170
C818        C  0.70882577  0.11459589  0.83718767     0.19720
F819        F  0.72727333  0.17378680  0.84841666    -0.13130
F820        F  0.69908531  0.15234379  0.78388827    -0.15490
F821        F  0.65526627  0.45000466  0.86403192    -0.15490
F822        F  0.65283618  0.43610230  0.79857401    -0.13130
C823        C  0.85865255  0.34397061  0.11345306     0.24880
C824        C  0.87196445  0.39998975  0.13034947    -0.23230
C825        C  0.86841804  0.44781375  0.11268904     0.19790
C826        C  0.86294584  0.44480828  0.07782730     0.24820
C827        C  0.85156054  0.38909606  0.05993091    -0.23170
C828        C  0.84920646  0.33863378  0.07911336     0.19720
F829        F  0.84115492  0.28426623  0.06539908    -0.13130
F830        F  0.85808114  0.29471156  0.13013119    -0.15490
F831        F  0.87452731  0.49923226  0.06210891    -0.15490
F832        F  0.87411105  0.49946663  0.12897591    -0.13130
C833        C  0.89267422  0.28649403  0.83701470     0.24880
C834        C  0.94450598  0.29336303  0.85649307    -0.23230
C835        C  0.00213618  0.30994672  0.83927371     0.19790
C836        C  0.50632001  0.31742096  0.80456058     0.24820
C837        C  0.95697225  0.31740599  0.78659755    -0.23170
C838        C  0.89922021  0.29926588  0.80293253     0.19720
F839        F  0.84910608  0.29603014  0.78594359    -0.13130
F840        F  0.83515844  0.26880695  0.85037290    -0.15490
F841        F  0.56014745  0.32823567  0.78871495    -0.15490
F842        F  0.55642661  0.32342785  0.85566951    -0.13130
C843        C  0.90969275  0.03803275  0.80519502     0.24880
C844        C  0.96091198  0.02974501  0.79610980    -0.23230
C845        C  0.00077820  0.02776875  0.82116735     0.19790
C846        C  0.99188774  0.03717748  0.85449038     0.24820
C847        C  0.94201013  0.04725844  0.86356484    -0.23170
C848        C  0.90031132  0.04688294  0.83882388     0.19720
F849        F  0.85200949  0.05734731  0.84715071    -0.13130
F850        F  0.87062328  0.04012825  0.78156579    -0.15490
F851        F  0.03163626  0.03585276  0.87799486    -0.15490
F852        F  0.54799188  0.01552519  0.81336451    -0.13130
C853        C  0.93380128  0.55904673  0.89874483     0.04410
C854        C  0.97975313  0.61516026  0.91453223    -0.11740
C855        C  0.96646108  0.63323774  0.94539224     0.01910
C856        C  0.90819579  0.59202603  0.96127723    -0.10260
C857        C  0.86197856  0.53602424  0.94543635     0.04410
C858        C  0.87598046  0.51905162  0.91464830    -0.09680
H859        H  0.02233863  0.64842934  0.90097406     0.10000
H860        H  0.89600491  0.60708672  0.98411632     0.07530
H861        H  0.83930848  0.47775253  0.90152022     0.07380
C862        C  0.93733863  0.77917016  0.89368746     0.04410
C863        C  0.97437081  0.75627568  0.90885386    -0.11740
C864        C  0.96442123  0.73481875  0.94180039     0.01910
C865        C  0.91197954  0.72968166  0.95936999    -0.10260
C866        C  0.87082050  0.74746989  0.94419592     0.04410
C867        C  0.88799391  0.77843619  0.91307698    -0.09680
H868        H  0.00797515  0.74915997  0.89461647     0.10000
H869        H  0.89998305  0.70662123  0.98352096     0.07530
H870        H  0.85865640  0.79664764  0.90351208     0.07380
C871        C  0.83703171  0.88181495  0.02274762     0.04410
C872        C  0.81413961  0.91877135  0.00730596    -0.11740
C873        C  0.79268913  0.90860198  0.97433937     0.01910
C874        C  0.78755250  0.85609419  0.95691614    -0.10260
C875        C  0.80522384  0.81502407  0.97222178     0.04410
C876        C  0.83636005  0.83246542  0.00324629    -0.09680
H877        H  0.80654679  0.95228087  0.02122878     0.10000
H878        H  0.76422448  0.84376756  0.93285831     0.07530
H879        H  0.85478897  0.80313608  0.01233048     0.07380
C880        C  0.72181606  0.57492137  0.89532941     0.04410
C881        C  0.73920032  0.53336479  0.91101741    -0.11740
C882        C  0.76318436  0.54338137  0.94356083     0.01910
C883        C  0.77651470  0.59997699  0.95992889    -0.10260
C884        C  0.76513188  0.64514951  0.94402674     0.04410
C885        C  0.73269938  0.62961425  0.91335451    -0.09860
H886        H  0.74053402  0.49587418  0.89720401     0.10000
H887        H  0.80099764  0.61148006  0.98366435     0.07530
H888        H  0.72070857  0.66342835  0.90317882     0.07380
C889        C  0.61523222  0.87689419  0.01750275     0.04410
C890        C  0.57378851  0.82069092  0.00041235    -0.11740
C891        C  0.59205121  0.80600818  0.97012533     0.01910
C892        C  0.64901053  0.85162906  0.95478581    -0.10260
C893        C  0.69058097  0.90918474  0.97103649     0.04410
C894        C  0.67307085  0.92140297  0.00224579    -0.09680
H895        H  0.52995369  0.78516879  0.01214011     0.10000
H896        H  0.66425191  0.83940334  0.93201996     0.07530
H897        H  0.70801741  0.96239158  0.01620049     0.07380
C898        C  0.79376846  0.00620405  0.95476489     0.01850
C899        C  0.75958474  0.94276264  0.96261287     0.01850
C900        C  0.63163168  0.66759835  0.02159366     0.04410
C901        C  0.58940436  0.68325188  0.00542937    -0.11740
C902        C  0.60016515  0.70744488  0.97290101     0.01910
C903        C  0.65714111  0.72093216  0.95684781    -0.10260
C904        C  0.70232035  0.71005370  0.97316007     0.04410
C905        C  0.68693612  0.67894448  0.00422736    -0.09680
H906        H  0.55046261  0.68241010  0.01896939     0.10000
H907        H  0.66873593  0.74483331  0.93292409     0.07530
H908        H  0.72090778  0.66806644  0.01544862     0.07380
C909        C  0.56267036  0.73737655  0.96122750     0.01850
C910        C  0.49935904  0.70245074  0.95349207     0.01850
C911        C  0.80184002  0.71400224  0.95397989     0.01850
C912        C  0.77095732  0.74579150  0.96290103     0.01850
O913        O  0.53339416  0.89361494  0.66331421    -0.84060
O914        O  0.64312738  0.99948256  0.67736462    -0.81110
C915        C  0.63638161  0.53582870  0.65710755     0.99400
O916        O  0.60541148  0.56221496  0.66557468    -0.81140
O917        O  0.50051185  0.56472375  0.68318555    -0.83790
C918        C  0.96099611  0.52368314  0.66279483     1.03920
O919        O  0.93674450  0.96557541  0.66914143    -0.76550
O920        O  0.93505647  0.85604427  0.68034810    -0.76740
C921        C  0.97464519  0.86160267  0.65805785     1.03880
O922        O  0.51058574  0.85540695  0.73370515    -0.84060
O923        O  0.61424283  0.96789759  0.74801144    -0.81120
C924        C  0.64431737  0.52551074  0.75541166     0.99420
O925        O  0.64487027  0.56641341  0.73523320    -0.81150
O926        O  0.53419159  0.55590803  0.75317417    -0.83760
C927        C  0.97646915  0.52544542  0.76111286     1.03890
O928        O  0.93506174  0.98991438  0.74001239    -0.76580
O929        O  0.94452674  0.88613843  0.75098194    -0.76730
C930        C  0.97102338  0.85364342  0.75508257     1.03850
Cr931      Cr  0.57241355  0.93178818  0.70579414     1.93740
Cr932      Cr  0.56849665  0.55671813  0.70925737     1.93210
Cr933      Cr  0.94367357  0.92759693  0.71001919     1.39100
O934        O  0.52823453  0.97209300  0.70832765    -1.21810
C935        C  0.93161335  0.57240901  0.52379881     0.04410
C936        C  0.87407638  0.53136257  0.50709426    -0.11740
C937        C  0.86344022  0.54183342  0.47398682     0.01910
C938        C  0.90991469  0.59715432  0.45771229    -0.10260
C939        C  0.96625632  0.64083800  0.47438855     0.04410
C940        C  0.97882029  0.62552715  0.50622504    -0.09680
H941        H  0.83405373  0.49419918  0.52060173     0.10000
H942        H  0.89932977  0.60949573  0.43351874     0.07530
H943        H  0.02341267  0.65861298  0.51806493     0.07380
C944        C  0.84084584  0.87937327  0.39636930     0.04410
C945        C  0.82795795  0.92365389  0.41167305    -0.11740
C946        C  0.80033851  0.91143518  0.44351012     0.01910
C947        C  0.78800621  0.85506051  0.46025751    -0.10260
C948        C  0.80042024  0.81022543  0.44471230     0.04410
C949        C  0.82866891  0.82389725  0.41317761    -0.09680
H950        H  0.83368684  0.96446020  0.39754332     0.10000
H951        H  0.76305473  0.84316702  0.48384756     0.07530
H952        H  0.83506369  0.78819366  0.40023399     0.07380
C953        C  0.71782740  0.56825147  0.51939991     0.04410
C954        C  0.73296938  0.62616542  0.50381596    -0.11740
C955        C  0.76216984  0.64180483  0.47242965     0.01910
C956        C  0.77433217  0.59776656  0.45607047    -0.10260
C957        C  0.76033299  0.54011462  0.47166215     0.04410
C958        C  0.72992525  0.52466980  0.50275642    -0.09680
H959        H  0.72786071  0.66191515  0.51751186     0.10000
H960        H  0.80054540  0.61109751  0.43284332     0.07530
H961        H  0.72126316  0.48135949  0.51535314     0.07380
C962        C  0.62692597  0.87724389  0.39459155     0.04410
C963        C  0.68164594  0.92329343  0.41139757    -0.11740
C964        C  0.69694349  0.91060375  0.44316829     0.01910
C965        C  0.65305642  0.85431939  0.45996059    -0.10260
C966        C  0.59680698  0.80847222  0.44408216     0.04410
C967        C  0.58489857  0.82021412  0.41142345    -0.09680
H968        H  0.71548059  0.96691432  0.39884366     0.10000
H969        H  0.66564974  0.84334995  0.48397865     0.07530
H970        H  0.54571095  0.78158455  0.39809981     0.07380
C971        C  0.50017940  0.70946136  0.46446842     0.01850
C972        C  0.56298698  0.74077245  0.45569319     0.01850
C973        C  0.79616363  0.00782183  0.46196236     0.01850
C974        C  0.76539073  0.94497750  0.45318615     0.01850
C975        C  0.62444759  0.66441452  0.39762434     0.04410
C976        C  0.58045362  0.67545921  0.41461118    -0.11740
C977        C  0.59564494  0.70537606  0.44582656     0.01910
C978        C  0.65316834  0.71919738  0.46141941    -0.10260
C979        C  0.69742051  0.70760680  0.44489465     0.04410
C980        C  0.68239468  0.67980435  0.41319015    -0.09680
H981        H  0.53684675  0.66631302  0.40228377     0.10000
H982        H  0.66620994  0.74478369  0.48482810     0.07530
H983        H  0.71866308  0.67587338  0.39935602     0.07380
C984        C  0.93422714  0.78490987  0.52132406     0.04410
C985        C  0.97806029  0.77119468  0.50620518    -0.11740
C986        C  0.96616769  0.74393806  0.47430229     0.01910
C987        C  0.90998610  0.73183999  0.45749171    -0.10260
C988        C  0.86530521  0.74466650  0.47291947     0.04410
C989        C  0.87916417  0.77335855  0.50434761    -0.09680
H990        H  0.01852916  0.77650835  0.52042904     0.10000
H991        H  0.89824957  0.70700420  0.43388245     0.07530
H992        H  0.84367259  0.78020094  0.51718304     0.07380
C993        C  0.76564300  0.74209320  0.45502770     0.01850
C994        C  0.79715300  0.71023781  0.46256107     0.01850
O995        O  0.52201999  0.55812317  0.16883529    -0.84060
O996        O  0.90948534  0.95457174  0.18331239    -0.81110
C997        C  0.90763351  0.91466199  0.16213730     0.99400
O998        O  0.94062727  0.88879667  0.16633131    -0.81140
O999        O  0.54342934  0.87861115  0.17644968    -0.83790
C1000       C  0.58206863  0.92104483  0.15638826     1.03920
O1001       O  0.61278366  0.97812254  0.16537778    -0.76550
O1002       O  0.62108335  0.58849910  0.18107066    -0.76740
C1003       C  0.57987887  0.58768537  0.16102587     1.03880
O1004       O  0.55312842  0.58821320  0.23946831    -0.84060
O1005       O  0.94818208  0.97812317  0.25353720    -0.81120
C1006       C  0.91707529  0.91946331  0.25938612     0.99420
O1007       O  0.91103044  0.87928450  0.23729289    -0.81150
O1008       O  0.51954102  0.87969696  0.24794737    -0.83760
C1009       C  0.57718981  0.90634949  0.25566243     1.03890
O1010       O  0.61903940  0.94637372  0.23575336    -0.76580
O1011       O  0.61640957  0.55133870  0.25143426    -0.76730
C1012       C  0.59027687  0.58247492  0.25975051     1.03850
Cr1013     Cr  0.98601964  0.51668252  0.21107766     1.93740
Cr1014     Cr  0.98200880  0.88764098  0.20711337     1.93210
Cr1015     Cr  0.61142094  0.51319733  0.20842078     1.39100
O1016       O  0.52654776  0.97247446  0.20883450    -1.21810
C1017       C  0.58567242  0.65343347  0.30478237     0.24880
C1018       C  0.60128706  0.60752650  0.29439302    -0.23230
C1019       C  0.62402343  0.58081746  0.31846009     0.19790
C1020       C  0.62853376  0.59742448  0.35186819     0.24820
C1021       C  0.61391019  0.64375630  0.36226910    -0.23170
C1022       C  0.59304561  0.67230372  0.33834503     0.19720
F1023       F  0.58154481  0.71972911  0.34716716    -0.13130
F1024       F  0.56448500  0.68088436  0.28248802    -0.15490
F1025       F  0.64629133  0.56700256  0.37426714    -0.15490
F1026       F  0.63945443  0.53590252  0.31017951    -0.13130
C1027       C  0.66707579  0.91276855  0.33522162     0.24880
C1028       C  0.61629155  0.88465513  0.35850446    -0.23230
C1029       C  0.55376394  0.85977334  0.34660588     0.19790
C1030       C  0.54189625  0.86075308  0.31280488     0.24820
C1031       C  0.59240638  0.89309800  0.28976729    -0.23170
C1032       C  0.65526430  0.91844864  0.30139044     0.19720
F1033       F  0.70530310  0.94888201  0.28017543    -0.13130
F1034       F  0.72818444  0.93407022  0.34482833    -0.15490
F1035       F  0.47984635  0.83183414  0.30316363    -0.15490
F1036       F  0.50325579  0.83580569  0.36779920    -0.13130
C1037       C  0.81236506  0.85751348  0.33603258     0.24880
C1038       C  0.85902864  0.88641872  0.36111673    -0.23230
C1039       C  0.92342036  0.92089950  0.35253999     0.19790
C1040       C  0.94118314  0.92834649  0.31918578     0.24820
C1041       C  0.89508391  0.90092050  0.29382403    -0.23170
C1042       C  0.83038934  0.86484774  0.30234462     0.19720
F1043       F  0.78503237  0.83971815  0.27824503    -0.13130
F1044       F  0.74960536  0.82348375  0.34424134    -0.15490
F1045       F  0.00391329  0.96297373  0.31140366    -0.15490
F1046       F  0.96898131  0.94782221  0.37649504    -0.13130
C1047       C  0.97106262  0.88399935  0.59871477     0.24880
C1048       C  0.95470394  0.83813665  0.62402579    -0.23230
C1049       C  0.93064978  0.77393795  0.61547990     0.19790
C1050       C  0.92338605  0.75624049  0.58177792     0.24820
C1051       C  0.94088297  0.80281593  0.55663741    -0.23170
C1052       C  0.96336096  0.86643791  0.56529021     0.19720
F1053       F  0.97956807  0.91173063  0.54131788    -0.13130
F1054       F  0.99737699  0.94657197  0.60653439    -0.15490
F1055       F  0.89971952  0.69399445  0.57356377    -0.15490
F1056       F  0.41738739  0.72941094  0.63950870    -0.13130
C1057       C  0.70986688  0.53478744  0.61259931     0.24880
C1058       C  0.66028777  0.54547167  0.62231715    -0.23230
C1059       C  0.62976042  0.56259144  0.59766703     0.19790
C1060       C  0.64697100  0.56729797  0.56431650     0.24820
C1061       C  0.69683514  0.55755336  0.55461248    -0.23170
C1062       C  0.72867825  0.54172311  0.57904682     0.19720
F1063       F  0.77929368  0.53506317  0.57066378    -0.13130
F1064       F  0.74120662  0.51943467  0.63556719    -0.15490
F1065       F  0.61423217  0.58091357  0.54131832    -0.15490
F1066       F  0.58162376  0.57341395  0.60551425    -0.13130
C1067       C  0.90575914  0.99031221  0.60778337     0.24880
C1068       C  0.94576873  0.54049160  0.62955823    -0.23230
C1069       C  0.97834669  0.60291765  0.61667385     0.19790
C1070       C  0.97331805  0.61418153  0.58266607     0.24820
C1071       C  0.93821021  0.56265981  0.56032856    -0.23170
C1072       C  0.90571067  0.50053095  0.57377963     0.19720
F1073       F  0.87625619  0.94810523  0.55393311    -0.13130
F1074       F  0.86956394  0.92927885  0.61884958    -0.15490
F1075       F  0.50326663  0.67569506  0.57207040    -0.15490
F1076       F  0.51677419  0.65290792  0.63659794    -0.13130
C1077       C  0.55798889  0.61412645  0.07025900     0.24880
C1078       C  0.62049510  0.64682309  0.05762186    -0.23230
C1079       C  0.67096171  0.66296329  0.08055646     0.19790
C1080       C  0.65907356  0.64697910  0.11453866     0.24820
C1081       C  0.59646652  0.61606115  0.12685166    -0.23170
C1082       C  0.54679233  0.60303946  0.10423514     0.19720
F1083       F  0.48599860  0.57805566  0.11467720    -0.13130
F1084       F  0.50648707  0.59035112  0.04976177    -0.15490
F1085       F  0.70884382  0.66043850  0.13506530    -0.15490
F1086       F  0.73220786  0.69377045  0.07056022    -0.13130
C1087       C  0.61432715  0.95747125  0.09774114     0.24880
C1088       C  0.59010223  0.90705539  0.12123073    -0.23230
C1089       C  0.57137185  0.84523120  0.10996155     0.19790
C1090       C  0.57906400  0.83476592  0.07627402     0.24820
C1091       C  0.60290715  0.88564231  0.05291940    -0.23170
C1092       C  0.61906253  0.94666578  0.06417800     0.19720
F1093       F  0.63921320  0.99648288  0.04259795    -0.13130
F1094       F  0.63276555  0.01806813  0.10692811    -0.15490
F1095       F  0.56542957  0.77533837  0.06699410    -0.15490
F1096       F  0.54729785  0.79528703  0.13157066    -0.13130
C1097       C  0.69498928  0.60353471  0.80305675     0.24880
C1098       C  0.67359681  0.54292540  0.78928638    -0.23230
C1099       C  0.66998157  0.99512258  0.81012628     0.19790
C1100       C  0.67587613  0.50307322  0.84490107     0.24820
C1101       C  0.70084410  0.56432811  0.85908905    -0.23170
C1102       C  0.70933784  0.61443515  0.83722053     0.19720
F1103       F  0.72921975  0.67402823  0.84827185    -0.13130
F1104       F  0.70059330  0.65223493  0.78374312    -0.15490
F1105       F  0.65750419  0.95037438  0.86330326    -0.15490
F1106       F  0.65623263  0.93765198  0.79779266    -0.13130
C1107       C  0.85861452  0.84401570  0.11348129     0.24880
C1108       C  0.87195924  0.90005038  0.13036944    -0.23230
C1109       C  0.86845298  0.94789033  0.11270261     0.19790
C1110       C  0.86297066  0.94487038  0.07784167     0.24820
C1111       C  0.85155486  0.88914094  0.05995352    -0.23170
C1112       C  0.84917985  0.83867496  0.07914209     0.19720
F1113       F  0.84112936  0.78430257  0.06543542    -0.13130
F1114       F  0.85801536  0.79474952  0.13016667    -0.15490
F1115       F  0.87457408  0.99929418  0.06211510    -0.15490
F1116       F  0.87419262  0.99956799  0.12898276    -0.13130
C1117       C  0.89323184  0.78758072  0.83723889     0.24880
C1118       C  0.94499928  0.79443480  0.85676577    -0.23230
C1119       C  0.00276750  0.81129910  0.83963300     0.19790
C1120       C  0.50712789  0.81890083  0.80492874     0.24820
C1121       C  0.95761732  0.81834915  0.78685455    -0.23170
C1122       C  0.89978988  0.80009336  0.80313493     0.19720
F1123       F  0.84962003  0.79657860  0.78607244    -0.13130
F1124       F  0.83579280  0.77027783  0.85057228    -0.15490
F1125       F  0.56128086  0.83040083  0.78920702    -0.15490
F1126       F  0.55700665  0.82493350  0.85613007    -0.13130
C1127       C  0.90950468  0.53801599  0.80518584     0.24880
C1128       C  0.96060469  0.52951331  0.79613141    -0.23230
C1129       C  0.00040387  0.52746788  0.82120325     0.19790
C1130       C  0.99157766  0.53700985  0.85451063     0.24820
C1131       C  0.94182547  0.54729930  0.86355468    -0.23170
C1132       C  0.90017756  0.54699304  0.83880412     0.19720
F1133       F  0.85197815  0.55762817  0.84711274    -0.13130
F1134       F  0.87051387  0.54020066  0.78153780    -0.15490
F1135       F  0.03126047  0.53560534  0.87803036    -0.15490
F1136       F  0.54750262  0.51504743  0.81342673    -0.13130
loop_ 
_geom_bond_atom_site_label_1 
_geom_bond_atom_site_label_2 
_geom_bond_distance 
_geom_bond_site_symmetry_2 
_ccdc_geom_bond_type 
C1            C2   1.404       .  A
C1            C6   1.396       .  A
C1          C279   1.473       .  S
C2            C3   1.405       .  A
C2            H7   1.084       .  S
C3            C4   1.408       .  A
C3          C626   1.486       .  S
C4            C5   1.405       .  A
C4            H8   1.082       .  S
C5            C6   1.398       .  A
C5          C330   1.484       .  S
C6            H9   1.085   1_545  S
C10          C11   1.406       .  A
C10          C15   1.420       .  A
C10         C266   1.515       .  S
C11          C12   1.395       .  A
C11          H16   1.078       .  S
C12          C13   1.404       .  A
C12         C626   1.487       .  S
C13          C14   1.406       .  A
C13          H17   1.082       .  S
C14          C15   1.406       .  A
C14          C59   1.499       .  S
C15          H18   1.077       .  S
C19          C20   1.409       .  A
C19          C24   1.423       .  A
C19         C259   1.523       .  S
C20          C21   1.397   1_554  A
C20          H25   1.075       .  S
C21          C22   1.402       .  A
C21          C47   1.487       .  S
C22          C23   1.404       .  A
C22          H26   1.082       .  S
C23          C24   1.406   1_556  A
C23          C60   1.498       .  S
C24          H27   1.073       .  S
C28          C29   1.417       .  A
C28          C33   1.414       .  A
C28         C249   1.520       .  S
C29          C30   1.400       .  A
C29          H34   1.078   1_545  S
C30          C31   1.404       .  A
C30         C330   1.492       .  S
C31          C32   1.406       .  A
C31          H35   1.082       .  S
C32          C33   1.406       .  A
C32          C59   1.498       .  S
C33          H36   1.075       .  S
C37          C38   1.401       .  A
C37          C42   1.409       .  A
C37         C239   1.490       .  S
C38          C39   1.400   1_554  A
C38          H43   1.083       .  S
C39          C40   1.405       .  A
C39          C57   1.486       .  S
C40          C41   1.405       .  A
C40          H44   1.082       .  S
C41          C42   1.401   1_556  A
C41          C47   1.486       .  S
C42          H45   1.083       .  S
C46         C289   1.484       .  S
C46         C314   1.492       .  S
C46          C47   1.366       .  D
C48          C49   1.413       .  A
C48          C53   1.411       .  A
C48         C226   1.509       .  S
C49          C50   1.399   1_554  A
C49          H54   1.081       .  S
C50          C51   1.406       .  A
C50          C57   1.492       .  S
C51          C52   1.408       .  A
C51          H55   1.082       .  S
C52          C53   1.405   1_556  A
C52          C60   1.498       .  S
C53          H56   1.079       .  S
C57          C58   1.365   1_455  D
C58         C571   1.486       .  S
C58         C580   1.487       .  S
C59          C60   1.364       .  D
O61         Cr79   1.944       .  S
O61         C637   1.251   1_455  A
O62         Cr79   2.026       .  S
O62         C347   1.270       .  A
C63         C206   1.484       .  S
C63          O64   1.253       .  A
C63         O346   1.271   1_545  A
O64         Cr80   1.942       .  S
O65         Cr80   2.039       .  S
O65         C634   1.273   1_455  A
C66         C216   1.492       .  S
C66         O633   1.273       .  A
C66         O351   1.250   1_545  A
O67         Cr81   1.926       .  S
O67         C350   1.250       .  A
O68         Cr81   2.026       .  S
O68          C69   1.269       .  A
C69         C196   1.465       .  S
C69         O629   1.251       .  A
O70         Cr79   2.033       .  S
O70         C646   1.272   1_455  A
O71         Cr79   1.943       .  S
O71         C356   1.254       .  A
C72         C246   1.492       .  S
C72          O73   1.272       .  A
C72         O355   1.254   1_545  A
O73         Cr80   2.031       .  S
O74         Cr80   1.945       .  S
O74         C643   1.252   1_455  A
C75         C276   1.474       .  S
C75         O642   1.252       .  A
C75         O360   1.269   1_545  A
O76         Cr81   2.023       .  S
O76         C359   1.268       .  A
O77         Cr81   1.929       .  S
O77          C78   1.250       .  A
C78         C269   1.476       .  S
C78         O638   1.272       .  A
Cr79         O82   1.776       .  S
Cr80        O366   1.779   1_545  S
Cr81        O650   1.775       .  S
O82        Cr364   1.779       .  S
O82        Cr649   1.775   1_455  S
C83          C84   1.411       .  A
C83          C88   1.408       .  A
C83         C219   1.505       .  S
C84          C85   1.399       .  A
C84          H89   1.081   1_545  S
C85          C86   1.405       .  A
C85         C405   1.490       .  S
C86          C87   1.408       .  A
C86          H90   1.082       .  S
C87          C88   1.404       .  A
C87         C687   1.490       .  S
C88          H91   1.080       .  S
C92          C93   1.401       .  A
C92          C97   1.394       .  A
C92         C186   1.466       .  S
C93          C94   1.403       .  A
C93          H98   1.084       .  S
C94          C95   1.410       .  A
C94         C122   1.489       .  S
C95          C96   1.410       .  A
C95          H99   1.082       .  S
C96          C97   1.397       .  A
C96         C141   1.485       .  S
C97         H100   1.085       .  S
C101        C102   1.404       .  A
C101        C106   1.399       .  A
C101        C209   1.480       .  S
C102        C103   1.400       .  A
C102        H107   1.084       .  S
C103        C104   1.404       .  A
C103        C142   1.486       .  S
C104        C105   1.405       .  A
C104        H108   1.082       .  S
C105        C106   1.401       .  A
C105        C405   1.482       .  S
C106        H109   1.084   1_545  S
C110        C111   1.405       .  A
C110        C115   1.409       .  A
C110        C176   1.496       .  S
C111        C112   1.402       .  A
C111        H116   1.082       .  S
C112        C113   1.409       .  A
C112        C122   1.490       .  S
C113        C114   1.407       .  A
C113        H117   1.082       .  S
C114        C115   1.400       .  A
C114        C120   1.491       .  S
C115        H118   1.083       .  S
C119        C655   1.490   1_455  S
C119        C702   1.491   1_455  S
C119        C120   1.363       .  D
C120        C125   1.483       .  S
C121        C369   1.490       .  S
C121        C389   1.482       .  S
C121        C122   1.363       .  D
C123        C124   1.400       .  A
C123        C128   1.405       .  A
C123        C169   1.483       .  S
C124        C125   1.401       .  A
C124        H129   1.084       .  S
C125        C126   1.406       .  A
C126        C127   1.404       .  A
C126        H130   1.082       .  S
C127        C128   1.400       .  A
C127        C141   1.487       .  S
C128        H131   1.084       .  S
C132        C133   1.401       .  A
C132        C137   1.395       .  A
C132        C199   1.467       .  S
C133        C134   1.403       .  A
C133        H138   1.084       .  S
C134        C135   1.411       .  A
C134        C687   1.491       .  S
C135        C136   1.411       .  A
C135        H139   1.081       .  S
C136        C137   1.398       .  A
C136        C142   1.488       .  S
C137        H140   1.085       .  S
C141        C142   1.363       .  D
O143       Cr729   1.939   1_455  S
O143        C151   1.253       .  A
O144       Cr445   2.037       .  S
O144        C145   1.272       .  A
C145        C256   1.479       .  S
C145        O146   1.249       .  A
O146       Cr162   1.925       .  S
O147       Cr730   2.027   1_455  S
O147        C148   1.270       .  A
C148        C236   1.487       .  S
C148        O149   1.250       .  A
O149       Cr447   1.934       .  S
O150       Cr163   2.035       .  S
O150        C151   1.273       .  A
C151        C229   1.494       .  S
O152       Cr729   2.030   1_455  S
O152        C160   1.270       .  A
O153       Cr445   1.937       .  S
O153        C154   1.251       .  A
C154        C189   1.467       .  S
C154        O155   1.270       .  A
O155       Cr162   2.030       .  S
O156       Cr730   1.928   1_455  S
O156        C157   1.249       .  A
C157        C179   1.492       .  S
C157        O158   1.272       .  A
O158       Cr447   2.035       .  S
O159       Cr163   1.934       .  S
O159        C160   1.249       .  A
C160        C166   1.487       .  S
Cr161       O711   1.939       .  S
Cr161       O428   2.037   1_545  S
Cr161       O720   2.030       .  S
Cr161       O437   1.937   1_545  S
Cr161      O1016   1.781   1_545  S
Cr162       O715   2.027       .  S
Cr162       O724   1.928       .  S
Cr162       O732   1.779       .  S
Cr163       O433   1.934   1_545  S
Cr163       O442   2.035   1_545  S
Cr163       O448   1.781   1_545  S
O164      Cr1013   1.781   1_455  S
O164       Cr730   1.779   1_455  S
O164       Cr447   1.781       .  S
C165        C166   1.405       .  A
C165        C170   1.405       .  A
C165        F172   1.357       .  S
C166        C167   1.416       .  A
C167        C168   1.388       .  A
C167        F174   1.357       .  S
C168        C169   1.399       .  A
C168        F173   1.359       .  S
C169        C170   1.414       .  A
C170        F171   1.358       .  S
C175        C176   1.418       .  A
C175        C180   1.407       .  A
C175        F182   1.357       .  S
C176        C177   1.404       .  A
C177        C178   1.388       .  A
C177        F184   1.359       .  S
C178        C179   1.416       .  A
C178        F183   1.358   1_455  S
C179        C180   1.406       .  A
C180        F181   1.357       .  S
C185        C186   1.410       .  A
C185        C190   1.404       .  A
C185        F192   1.358       .  S
C186        C187   1.394       .  A
C187        C188   1.390       .  A
C187        F194   1.358       .  S
C188        C189   1.407       .  A
C188        F193   1.354       .  S
C189        C190   1.402       .  A
C190        F191   1.357       .  S
C195        C196   1.405       .  A
C195        C200   1.391       .  A
C195        F202   1.353       .  S
C196        C197   1.402       .  A
C197        C198   1.403       .  A
C197        F772   1.357       .  S
C198        C199   1.408       .  A
C198        F203   1.357       .  S
C199        C200   1.396       .  A
C200        F201   1.358       .  S
F204        C765   1.357       .  S
C205        C206   1.406       .  A
C205        C210   1.404       .  A
C205        F212   1.357       .  S
C206        C207   1.414       .  A
C207        C208   1.389       .  A
C207        F214   1.355       .  S
C208        C209   1.398       .  A
C208        F213   1.359       .  S
C209        C210   1.412       .  A
C210        F211   1.358       .  S
C215        C500   1.413       .  A
C215        C504   1.387       .  A
C215        F222   1.359       .  S
C216        C217   1.405       .  A
C216        C499   1.413   1_545  A
C217        C218   1.407       .  A
C217        F792   1.357       .  S
C218        C219   1.422       .  A
C218        F791   1.356       .  S
C219        C220   1.408       .  A
C220        C499   1.388   1_545  A
C220        F505   1.358   1_545  S
F221        C504   1.358       .  S
F223        C786   1.356   1_455  S
F224        C785   1.357   1_455  S
C225        C226   1.406       .  A
C225        C230   1.389       .  A
C225        F232   1.358       .  S
C226        C227   1.419       .  A
C227        C228   1.406       .  A
C227        F234   1.346       .  S
C228        C229   1.403       .  A
C228        F233   1.358       .  S
C229        C230   1.410       .  A
C230        F231   1.349   1_455  S
C235        C236   1.414       .  A
C235        C240   1.388       .  A
C235        F242   1.353       .  S
C236        C237   1.404       .  A
C237        C238   1.405       .  A
C237        F244   1.357       .  S
C238        C239   1.418       .  A
C238        F243   1.357       .  S
C239        C240   1.400       .  A
C240        F241   1.359       .  S
C245        C246   1.402       .  A
C245        C250   1.406       .  A
C245        F252   1.358       .  S
C246        C531   1.407   1_545  A
C247        C530   1.407       .  A
C247        C532   1.390       .  A
C247        F254   1.352       .  S
C248        C249   1.412       .  A
C248        C531   1.390   1_545  A
C248        F537   1.357   1_545  S
C249        C250   1.425       .  A
C250        F251   1.347       .  S
F253        C532   1.357       .  S
C255        C256   1.402       .  A
C255        C260   1.392       .  A
C255        F262   1.360       .  S
C256        C257   1.394       .  A
C257        C258   1.403       .  A
C257        F264   1.356       .  S
C258        C259   1.428       .  A
C258        F263   1.355       .  S
C259        C260   1.419       .  A
C260        F261   1.348       .  S
C265        C266   1.416       .  A
C265        C270   1.393       .  A
C265        F272   1.348       .  S
C266        C267   1.424       .  A
C267        C836   1.401       .  A
C267        F842   1.356       .  S
C268        C835   1.401       .  A
C268        C837   1.395   1_455  A
C268        F273   1.354       .  S
C269        C270   1.402       .  A
C269        C836   1.395       .  A
C270        F271   1.359       .  S
F274        C835   1.356       .  S
C275        C276   1.402       .  A
C275        C280   1.403       .  A
C275        F282   1.357       .  S
C276        C277   1.410       .  A
C277        C278   1.392       .  A
C277        F852   1.355       .  S
C278        C279   1.397       .  A
C278        F283   1.359       .  S
C279        C280   1.412       .  A
C280        F281   1.358       .  S
F284        C845   1.355       .  S
C285        C286   1.404       .  A
C285        C290   1.395       .  A
C285        C563   1.473       .  S
C286        C287   1.405       .  A
C286        H291   1.084       .  S
C287        C288   1.408       .  A
C287        C910   1.487       .  S
C288        C289   1.405       .  A
C288        H292   1.082       .  S
C289        C290   1.397       .  A
C290        H293   1.085       .  S
C294        C295   1.406       .  A
C294        C299   1.420       .  A
C294        C550   1.515       .  S
C295        C296   1.395       .  A
C295        H300   1.078       .  S
C296        C297   1.404       .  A
C296        C910   1.487       .  S
C297        C298   1.406       .  A
C297        H301   1.082       .  S
C298        C299   1.406       .  A
C298        C343   1.499       .  S
C299        H302   1.077       .  S
C303        C304   1.409       .  A
C303        C308   1.423       .  A
C303        C543   1.523       .  S
C304        C305   1.397   1_554  A
C304        H309   1.075       .  S
C305        C306   1.402       .  A
C305        C331   1.487       .  S
C306        C307   1.404       .  A
C306        H310   1.082       .  S
C307        C308   1.406   1_556  A
C307        C344   1.498       .  S
C308        H311   1.073       .  S
C312        C313   1.416       .  A
C312        C317   1.414       .  A
C312        C533   1.519       .  S
C313        C314   1.400       .  A
C313        H318   1.079       .  S
C314        C315   1.404       .  A
C315        C316   1.406       .  A
C315        H319   1.082       .  S
C316        C317   1.406       .  A
C316        C343   1.498       .  S
C317        H320   1.076       .  S
C321        C322   1.401       .  A
C321        C326   1.409       .  A
C321        C523   1.490       .  S
C322        C323   1.400   1_554  A
C322        H327   1.083       .  S
C323        C324   1.405       .  A
C323        C341   1.486       .  S
C324        C325   1.406       .  A
C324        H328   1.082       .  S
C325        C326   1.401   1_556  A
C325        C331   1.486       .  S
C326        H329   1.083       .  S
C330        C331   1.366   1_545  D
C332        C333   1.413       .  A
C332        C337   1.411       .  A
C332        C510   1.509       .  S
C333        C334   1.399   1_554  A
C333        H338   1.081       .  S
C334        C335   1.406       .  A
C334        C341   1.492       .  S
C335        C336   1.408       .  A
C335        H339   1.082       .  S
C336        C337   1.405   1_556  A
C336        C344   1.497       .  S
C337        H340   1.079       .  S
C341        C342   1.365   1_455  D
C342        C855   1.487       .  S
C342        C864   1.487       .  S
C343        C344   1.364       .  D
O345       Cr363   1.944       .  S
O345        C921   1.251   1_455  A
O346       Cr363   2.026       .  S
C347        C490   1.484       .  S
C347        O348   1.252       .  A
O348       Cr364   1.942       .  S
O349       Cr364   2.039       .  S
O349        C918   1.273   1_455  A
C350        C500   1.492       .  S
C350        O917   1.273       .  A
O351       Cr365   1.926       .  S
O352       Cr365   2.026       .  S
O352        C353   1.269       .  A
C353        C480   1.465       .  S
C353        O913   1.251       .  A
O354       Cr363   2.033       .  S
O354        C930   1.272   1_455  A
O355       Cr363   1.942       .  S
C356        C530   1.492       .  S
C356        O357   1.272       .  A
O357       Cr364   2.031       .  S
O358       Cr364   1.945       .  S
O358        C927   1.252   1_455  A
C359        C560   1.473       .  S
C359        O926   1.252       .  A
O360       Cr365   2.023       .  S
O361       Cr365   1.929       .  S
O361        C362   1.250       .  A
C362        C553   1.476       .  S
C362        O922   1.272       .  A
Cr363       O366   1.776       .  S
Cr365       O934   1.775       .  S
O366       Cr933   1.775   1_455  S
C367        C368   1.411       .  A
C367        C372   1.408       .  A
C367        C503   1.505       .  S
C368        C369   1.399       .  A
C368        H373   1.081       .  S
C369        C370   1.405       .  A
C370        C371   1.408       .  A
C370        H374   1.082       .  S
C371        C372   1.404       .  A
C371        C971   1.490       .  S
C372        H375   1.080       .  S
C376        C377   1.401       .  A
C376        C381   1.394       .  A
C376        C470   1.466       .  S
C377        C378   1.403       .  A
C377        H382   1.084       .  S
C378        C379   1.410       .  A
C378        C406   1.489       .  S
C379        C380   1.410       .  A
C379        H383   1.082       .  S
C380        C381   1.397       .  A
C380        C425   1.485       .  S
C381        H384   1.085       .  S
C385        C386   1.404       .  A
C385        C390   1.399       .  A
C385        C493   1.480       .  S
C386        C387   1.400       .  A
C386        H391   1.084       .  S
C387        C388   1.404       .  A
C387        C426   1.486       .  S
C388        C389   1.405       .  A
C388        H392   1.082       .  S
C389        C390   1.401       .  A
C390        H393   1.084       .  S
C394        C395   1.405       .  A
C394        C399   1.409       .  A
C394        C460   1.496       .  S
C395        C396   1.402       .  A
C395        H400   1.082       .  S
C396        C397   1.409       .  A
C396        C406   1.490       .  S
C397        C398   1.407       .  A
C397        H401   1.082       .  S
C398        C399   1.400       .  A
C398        C404   1.491       .  S
C399        H402   1.083       .  S
C403        C939   1.490   1_455  S
C403        C986   1.491   1_455  S
C403        C404   1.363       .  D
C404        C409   1.483       .  S
C405        C406   1.363   1_545  D
C407        C408   1.400       .  A
C407        C412   1.405       .  A
C407        C453   1.484       .  S
C408        C409   1.401       .  A
C408        H413   1.084       .  S
C409        C410   1.406       .  A
C410        C411   1.405       .  A
C410        H414   1.082       .  S
C411        C412   1.400       .  A
C411        C425   1.487       .  S
C412        H415   1.084       .  S
C416        C417   1.401       .  A
C416        C421   1.395       .  A
C416        C483   1.467       .  S
C417        C418   1.403       .  A
C417        H422   1.084       .  S
C418        C419   1.411       .  A
C418        C971   1.491       .  S
C419        C420   1.411       .  A
C419        H423   1.082       .  S
C420        C421   1.398       .  A
C420        C426   1.488       .  S
C421        H424   1.085       .  S
C425        C426   1.363       .  D
O427      Cr1013   1.938   1_455  S
O427        C435   1.253       .  A
O428        C429   1.272       .  A
C429        C540   1.479       .  S
C429        O430   1.249       .  A
O430       Cr446   1.925       .  S
O431      Cr1014   2.027   1_455  S
O431        C432   1.270       .  A
C432        C520   1.487       .  S
C432        O433   1.250       .  A
O434       Cr447   2.035       .  S
O434        C435   1.273       .  A
C435        C513   1.494       .  S
O436      Cr1013   2.030   1_455  S
O436        C444   1.270       .  A
O437        C438   1.251       .  A
C438        C473   1.467       .  S
C438        O439   1.270       .  A
O439       Cr446   2.030       .  S
O440      Cr1014   1.928   1_455  S
O440        C441   1.249       .  A
C441        C463   1.492       .  S
C441        O442   1.272       .  A
O443       Cr447   1.934       .  S
O443        C444   1.249       .  A
C444        C450   1.487       .  S
Cr445       O995   1.938       .  S
Cr445      O1004   2.030       .  S
Cr445       O732   1.781       .  S
Cr446       O999   2.027       .  S
Cr446      O1008   1.928       .  S
Cr446      O1016   1.779       .  S
O448       Cr729   1.781   1_465  S
O448      Cr1014   1.779   1_455  S
C449        C450   1.405       .  A
C449        C454   1.405       .  A
C449        F456   1.357       .  S
C450        C451   1.416       .  A
C451        C452   1.388       .  A
C451        F458   1.357       .  S
C452        C453   1.399       .  A
C452        F457   1.359       .  S
C453        C454   1.414       .  A
C454        F455   1.358       .  S
C459        C460   1.418       .  A
C459        C464   1.407       .  A
C459        F466   1.357       .  S
C460        C461   1.404       .  A
C461        C462   1.388       .  A
C461        F468   1.359       .  S
C462        C463   1.416       .  A
C462        F467   1.358   1_455  S
C463        C464   1.406       .  A
C464        F465   1.357       .  S
C469        C470   1.410       .  A
C469        C474   1.404       .  A
C469        F476   1.358       .  S
C470        C471   1.394       .  A
C471        C472   1.390       .  A
C471        F478   1.358       .  S
C472        C473   1.407       .  A
C472        F477   1.354       .  S
C473        C474   1.402       .  A
C474        F475   1.357       .  S
C479        C480   1.405       .  A
C479        C484   1.391       .  A
C479        F486   1.353       .  S
C480        C481   1.402       .  A
C481        C482   1.403       .  A
C481       F1056   1.357       .  S
C482        C483   1.409       .  A
C482        F487   1.357       .  S
C483        C484   1.396       .  A
C484        F485   1.358       .  S
F488       C1049   1.357       .  S
C489        C490   1.406       .  A
C489        C494   1.404       .  A
C489        F496   1.357       .  S
C490        C491   1.414       .  A
C491        C492   1.389       .  A
C491        F498   1.355       .  S
C492        C493   1.398       .  A
C492        F497   1.359       .  S
C493        C494   1.412       .  A
C494        F495   1.358       .  S
C499        F506   1.359       .  S
C500        C501   1.405       .  A
C501        C502   1.408       .  A
C501       F1076   1.357       .  S
C502        C503   1.422       .  A
C502       F1075   1.356       .  S
C503        C504   1.408       .  A
F507       C1070   1.356   1_455  S
F508       C1069   1.357   1_455  S
C509        C510   1.406       .  A
C509        C514   1.389       .  A
C509        F516   1.358       .  S
C510        C511   1.419       .  A
C511        C512   1.406       .  A
C511        F518   1.346       .  S
C512        C513   1.403       .  A
C512        F517   1.358       .  S
C513        C514   1.410       .  A
C514        F515   1.349   1_455  S
C519        C520   1.414       .  A
C519        C524   1.388       .  A
C519        F526   1.353   1_565  S
C520        C521   1.404       .  A
C521        C522   1.405       .  A
C521        F528   1.357       .  S
C522        C523   1.418       .  A
C522        F527   1.357       .  S
C523        C524   1.400       .  A
C524        F525   1.359       .  S
C529        C530   1.402       .  A
C529        C534   1.406       .  A
C529        F536   1.358       .  S
C531        F538   1.352       .  S
C532        C533   1.411       .  A
C533        C534   1.424       .  A
C534        F535   1.347       .  S
C539        C540   1.402       .  A
C539        C544   1.392       .  A
C539        F546   1.360       .  S
C540        C541   1.394       .  A
C541        C542   1.403       .  A
C541        F548   1.356       .  S
C542        C543   1.428       .  A
C542        F547   1.355       .  S
C543        C544   1.419       .  A
C544        F545   1.348       .  S
C549        C550   1.415       .  A
C549        C554   1.392       .  A
C549        F556   1.347       .  S
C550        C551   1.424       .  A
C551       C1120   1.401       .  A
C551       F1126   1.356       .  S
C552       C1119   1.401       .  A
C552       C1121   1.395   1_455  A
C552        F557   1.354       .  S
C553       C1120   1.395       .  A
C553        C554   1.402       .  A
C554        F555   1.359       .  S
F558       C1119   1.356       .  S
C559        C560   1.402       .  A
C559        C564   1.403       .  A
C559        F566   1.357       .  S
C560        C561   1.410       .  A
C561        C562   1.391       .  A
C561       F1136   1.355       .  S
C562        C563   1.396       .  A
C562        F567   1.359       .  S
C563        C564   1.412       .  A
C564        F565   1.358       .  S
F568       C1129   1.355       .  S
C569        C570   1.404       .  A
C569        C574   1.396       .  A
C569        C847   1.473       .  S
C570        C571   1.405       .  A
C570        H575   1.084   1_655  S
C571        C572   1.408       .  A
C572        C573   1.405       .  A
C572        H576   1.082       .  S
C573        C574   1.398       .  A
C573        C898   1.484       .  S
C574        H577   1.085   1_545  S
C578        C579   1.406       .  A
C578        C583   1.420       .  A
C578        C834   1.515       .  S
C579        C580   1.395       .  A
C579        H584   1.078   1_655  S
C580        C581   1.404       .  A
C581        C582   1.406       .  A
C581        H585   1.082       .  S
C582        C583   1.406       .  A
C582        C627   1.499       .  S
C583        H586   1.077       .  S
C587        C588   1.409       .  A
C587        C592   1.423       .  A
C587        C827   1.523       .  S
C588        C589   1.397   1_554  A
C588        H593   1.075       .  S
C589        C590   1.402       .  A
C589        C615   1.487       .  S
C590        C591   1.404       .  A
C590        H594   1.082       .  S
C591        C592   1.406   1_556  A
C591        C628   1.498       .  S
C592        H595   1.073       .  S
C596        C597   1.417       .  A
C596        C601   1.414       .  A
C596        C817   1.520       .  S
C597        C598   1.400       .  A
C597        H602   1.078   1_545  S
C598        C599   1.404       .  A
C598        C898   1.492       .  S
C599        C600   1.406       .  A
C599        H603   1.082       .  S
C600        C601   1.406       .  A
C600        C627   1.498       .  S
C601        H604   1.075       .  S
C605        C606   1.401       .  A
C605        C610   1.409       .  A
C605        C807   1.490       .  S
C606        C607   1.400   1_554  A
C606        H611   1.083       .  S
C607        C608   1.405       .  A
C607        C625   1.486       .  S
C608        C609   1.405       .  A
C608        H612   1.082       .  S
C609        C610   1.401   1_556  A
C609        C615   1.486       .  S
C610        H613   1.083       .  S
C614        C857   1.484       .  S
C614        C882   1.492       .  S
C614        C615   1.366       .  D
C616        C617   1.413       .  A
C616        C621   1.411       .  A
C616        C794   1.509       .  S
C617        C618   1.399   1_554  A
C617        H622   1.081       .  S
C618        C619   1.406       .  A
C618        C625   1.492       .  S
C619        C620   1.408       .  A
C619        H623   1.082       .  S
C620        C621   1.405   1_556  A
C620        C628   1.498       .  S
C621        H624   1.079       .  S
C625        C626   1.365       .  D
C627        C628   1.364       .  D
O629       Cr647   1.944       .  S
O630       Cr647   2.026       .  S
O630        C915   1.270       .  A
C631        C774   1.484       .  S
C631        O914   1.271   1_545  A
C631        O632   1.253       .  A
O632       Cr648   1.942       .  S
O633       Cr648   2.039       .  S
C634        C784   1.492       .  S
C634        O919   1.250   1_545  A
O635       Cr649   1.926       .  S
O635        C918   1.250       .  A
O636       Cr649   2.026       .  S
O636        C637   1.269       .  A
C637        C764   1.465       .  S
O638       Cr647   2.033       .  S
O639       Cr647   1.943       .  S
O639        C924   1.254       .  A
C640        C814   1.492       .  S
C640        O923   1.254   1_545  A
C640        O641   1.272       .  A
O641       Cr648   2.031       .  S
O642       Cr648   1.945       .  S
C643        C844   1.474       .  S
C643        O928   1.269   1_545  A
O644       Cr649   2.023       .  S
O644        C927   1.268       .  A
O645       Cr649   1.929       .  S
O645        C646   1.250       .  A
C646        C837   1.476       .  S
Cr647       O650   1.776       .  S
Cr648       O934   1.779   1_545  S
O650       Cr932   1.779       .  S
C651        C652   1.411       .  A
C651        C656   1.408       .  A
C651        C787   1.505       .  S
C652        C653   1.399       .  A
C652        H657   1.081   1_545  S
C653        C654   1.405       .  A
C653        C973   1.490       .  S
C654        C655   1.408       .  A
C654        H658   1.082       .  S
C655        C656   1.404       .  A
C656        H659   1.080   1_655  S
C660        C661   1.401       .  A
C660        C665   1.394       .  A
C660        C754   1.466       .  S
C661        C662   1.403       .  A
C661        H666   1.084       .  S
C662        C663   1.410       .  A
C662        C690   1.489       .  S
C663        C664   1.410       .  A
C663        H667   1.082       .  S
C664        C665   1.397       .  A
C664        C709   1.485       .  S
C665        H668   1.085       .  S
C669        C670   1.404       .  A
C669        C674   1.399       .  A
C669        C777   1.480       .  S
C670        C671   1.400       .  A
C670        H675   1.084       .  S
C671        C672   1.404       .  A
C671        C710   1.486       .  S
C672        C673   1.405       .  A
C672        H676   1.082       .  S
C673        C674   1.401       .  A
C673        C973   1.482       .  S
C674        H677   1.084   1_545  S
C678        C679   1.405       .  A
C678        C683   1.409       .  A
C678        C744   1.496       .  S
C679        C680   1.402       .  A
C679        H684   1.082       .  S
C680        C681   1.409       .  A
C680        C690   1.490       .  S
C681        C682   1.407       .  A
C681        H685   1.082       .  S
C682        C683   1.400       .  A
C682        C688   1.491       .  S
C683        H686   1.083       .  S
C687        C688   1.363       .  D
C688        C693   1.483       .  S
C689        C937   1.490       .  S
C689        C957   1.482       .  S
C689        C690   1.363       .  D
C691        C692   1.400       .  A
C691        C696   1.405       .  A
C691        C737   1.483       .  S
C692        C693   1.401       .  A
C692        H697   1.084       .  S
C693        C694   1.406       .  A
C694        C695   1.404       .  A
C694        H698   1.082       .  S
C695        C696   1.400       .  A
C695        C709   1.487       .  S
C696        H699   1.084       .  S
C700        C701   1.401       .  A
C700        C705   1.395       .  A
C700        C767   1.467       .  S
C701        C702   1.403       .  A
C701        H706   1.084   1_655  S
C702        C703   1.411       .  A
C703        C704   1.411       .  A
C703        H707   1.081       .  S
C704        C705   1.398       .  A
C704        C710   1.488       .  S
C705        H708   1.085       .  S
C709        C710   1.363       .  D
O711        C719   1.253       .  A
O712      Cr1013   2.037       .  S
O712        C713   1.272       .  A
C713        C824   1.479       .  S
C713        O714   1.249       .  A
O714       Cr730   1.925       .  S
O715        C716   1.270       .  A
C716        C804   1.487       .  S
C716        O717   1.250       .  A
O717      Cr1015   1.934       .  S
O718       Cr731   2.035       .  S
O718        C719   1.273       .  A
C719        C797   1.494       .  S
O720        C728   1.270       .  A
O721      Cr1013   1.937       .  S
O721        C722   1.251       .  A
C722        C757   1.467       .  S
C722        O723   1.270       .  A
O723       Cr730   2.030       .  S
O724        C725   1.249       .  A
C725        C747   1.492       .  S
C725        O726   1.272       .  A
O726      Cr1015   2.035       .  S
O727       Cr731   1.934       .  S
O727        C728   1.249       .  A
C728        C734   1.487       .  S
Cr729       O996   2.037   1_545  S
Cr729      O1005   1.937   1_545  S
Cr731      O1001   1.934   1_545  S
Cr731      O1010   2.035   1_545  S
Cr731      O1016   1.781   1_545  S
O732      Cr1015   1.781       .  S
C733        C734   1.405       .  A
C733        C738   1.405       .  A
C733        F740   1.357       .  S
C734        C735   1.416       .  A
C735        C736   1.388       .  A
C735        F742   1.357       .  S
C736        C737   1.399       .  A
C736        F741   1.359       .  S
C737        C738   1.414       .  A
C738        F739   1.358       .  S
C743        C744   1.418       .  A
C743        C748   1.407       .  A
C743        F750   1.357       .  S
C744        C745   1.404       .  A
C745        C746   1.388       .  A
C745        F752   1.359       .  S
C746        C747   1.416       .  A
C746        F751   1.358       .  S
C747        C748   1.406       .  A
C748        F749   1.357       .  S
C753        C754   1.410       .  A
C753        C758   1.404       .  A
C753        F760   1.358       .  S
C754        C755   1.394       .  A
C755        C756   1.390       .  A
C755        F762   1.358       .  S
C756        C757   1.407       .  A
C756        F761   1.354   1_655  S
C757        C758   1.402       .  A
C758        F759   1.357       .  S
C763        C764   1.405       .  A
C763        C768   1.391       .  A
C763        F770   1.353       .  S
C764        C765   1.402       .  A
C765        C766   1.403       .  A
C766        C767   1.408       .  A
C766        F771   1.357       .  S
C767        C768   1.396       .  A
C768        F769   1.358       .  S
C773        C774   1.406       .  A
C773        C778   1.404       .  A
C773        F780   1.357       .  S
C774        C775   1.414       .  A
C775        C776   1.389       .  A
C775        F782   1.355       .  S
C776        C777   1.398       .  A
C776        F781   1.359       .  S
C777        C778   1.412       .  A
C778        F779   1.358       .  S
C783       C1068   1.413       .  A
C783       C1072   1.387       .  A
C783        F790   1.359       .  S
C784       C1067   1.413   1_545  A
C784        C785   1.405       .  A
C785        C786   1.407       .  A
C786        C787   1.422       .  A
C787        C788   1.408       .  A
C788       C1067   1.388   1_545  A
C788       F1073   1.358   1_545  S
F789       C1072   1.358       .  S
C793        C794   1.406       .  A
C793        C798   1.389       .  A
C793        F800   1.358       .  S
C794        C795   1.419       .  A
C795        C796   1.406       .  A
C795        F802   1.346       .  S
C796        C797   1.403       .  A
C796        F801   1.358       .  S
C797        C798   1.410       .  A
C798        F799   1.349       .  S
C803        C804   1.414       .  A
C803        C808   1.388       .  A
C803        F810   1.353       .  S
C804        C805   1.404       .  A
C805        C806   1.405       .  A
C805        F812   1.357       .  S
C806        C807   1.418       .  A
C806        F811   1.357       .  S
C807        C808   1.400       .  A
C808        F809   1.359       .  S
C813        C814   1.402       .  A
C813        C818   1.406       .  A
C813        F820   1.358       .  S
C814       C1099   1.407   1_545  A
C815       C1098   1.407       .  A
C815       C1100   1.390       .  A
C815        F822   1.352       .  S
C816       C1099   1.390   1_545  A
C816        C817   1.412       .  A
C816       F1105   1.357   1_545  S
C817        C818   1.425       .  A
C818        F819   1.347       .  S
F821       C1100   1.357       .  S
C823        C824   1.402       .  A
C823        C828   1.392       .  A
C823        F830   1.360       .  S
C824        C825   1.394       .  A
C825        C826   1.403       .  A
C825        F832   1.356       .  S
C826        C827   1.428       .  A
C826        F831   1.355       .  S
C827        C828   1.419       .  A
C828        F829   1.348       .  S
C833        C834   1.416       .  A
C833        C838   1.393       .  A
C833        F840   1.348       .  S
C834        C835   1.424   1_655  A
C836        F841   1.354       .  S
C837        C838   1.402       .  A
C838        F839   1.359       .  S
C843        C844   1.402       .  A
C843        C848   1.403       .  A
C843        F850   1.357       .  S
C844        C845   1.410   1_655  A
C845        C846   1.392   1_455  A
C846        C847   1.397       .  A
C846        F851   1.359   1_655  S
C847        C848   1.412       .  A
C848        F849   1.358       .  S
C853        C854   1.404       .  A
C853        C858   1.395       .  A
C853       C1131   1.473       .  S
C854        C855   1.405       .  A
C854        H859   1.084   1_655  S
C855        C856   1.408       .  A
C856        C857   1.405       .  A
C856        H860   1.082       .  S
C857        C858   1.397       .  A
C858        H861   1.085       .  S
C862        C863   1.406       .  A
C862        C867   1.420       .  A
C862       C1118   1.515       .  S
C863        C864   1.395       .  A
C863        H868   1.078   1_655  S
C864        C865   1.404       .  A
C865        C866   1.406       .  A
C865        H869   1.082       .  S
C866        C867   1.406       .  A
C866        C911   1.499       .  S
C867        H870   1.077       .  S
C871        C872   1.409       .  A
C871        C876   1.423       .  A
C871       C1111   1.523       .  S
C872        C873   1.397   1_554  A
C872        H877   1.075       .  S
C873        C874   1.402       .  A
C873        C899   1.487       .  S
C874        C875   1.404       .  A
C874        H878   1.082       .  S
C875        C876   1.406   1_556  A
C875        C912   1.498       .  S
C876        H879   1.073       .  S
C880        C881   1.416       .  A
C880        C885   1.414       .  A
C880       C1101   1.519       .  S
C881        C882   1.400       .  A
C881        H886   1.079       .  S
C882        C883   1.404       .  A
C883        C884   1.406       .  A
C883        H887   1.082       .  S
C884        C885   1.406       .  A
C884        C911   1.498       .  S
C885        H888   1.076       .  S
C889        C890   1.401       .  A
C889        C894   1.409       .  A
C889       C1091   1.490       .  S
C890        C891   1.400   1_554  A
C890        H895   1.083       .  S
C891        C892   1.405       .  A
C891        C909   1.486       .  S
C892        C893   1.406       .  A
C892        H896   1.082       .  S
C893        C894   1.401   1_556  A
C893        C899   1.486       .  S
C894        H897   1.083       .  S
C898        C899   1.366   1_545  D
C900        C901   1.413       .  A
C900        C905   1.411       .  A
C900       C1078   1.509       .  S
C901        C902   1.399   1_554  A
C901        H906   1.081       .  S
C902        C903   1.406       .  A
C902        C909   1.492       .  S
C903        C904   1.408       .  A
C903        H907   1.082       .  S
C904        C905   1.405   1_556  A
C904        C912   1.497       .  S
C905        H908   1.079       .  S
C909        C910   1.365       .  D
C911        C912   1.364       .  D
O913       Cr931   1.944       .  S
O914       Cr931   2.026       .  S
C915       C1058   1.484       .  S
C915        O916   1.252       .  A
O916       Cr932   1.942       .  S
O917       Cr932   2.039       .  S
C918       C1068   1.492       .  S
O919       Cr933   1.926       .  S
O920       Cr933   2.026       .  S
O920        C921   1.269       .  A
C921       C1048   1.465       .  S
O922       Cr931   2.033       .  S
O923       Cr931   1.942       .  S
C924       C1098   1.492       .  S
C924        O925   1.272       .  A
O925       Cr932   2.031       .  S
O926       Cr932   1.945       .  S
C927       C1128   1.473       .  S
O928       Cr933   2.023       .  S
O929       Cr933   1.929       .  S
O929        C930   1.250       .  A
C930       C1121   1.476       .  S
Cr931       O934   1.776       .  S
C935        C936   1.411       .  A
C935        C940   1.408       .  A
C935       C1071   1.505       .  S
C936        C937   1.399       .  A
C936        H941   1.081       .  S
C937        C938   1.405       .  A
C938        C939   1.408       .  A
C938        H942   1.082       .  S
C939        C940   1.404       .  A
C940        H943   1.080   1_655  S
C944        C945   1.401       .  A
C944        C949   1.394       .  A
C944       C1038   1.466       .  S
C945        C946   1.403       .  A
C945        H950   1.084       .  S
C946        C947   1.410       .  A
C946        C974   1.489       .  S
C947        C948   1.410       .  A
C947        H951   1.082       .  S
C948        C949   1.397       .  A
C948        C993   1.485       .  S
C949        H952   1.085       .  S
C953        C954   1.404       .  A
C953        C958   1.399       .  A
C953       C1061   1.480       .  S
C954        C955   1.400       .  A
C954        H959   1.084       .  S
C955        C956   1.404       .  A
C955        C994   1.486       .  S
C956        C957   1.405       .  A
C956        H960   1.082       .  S
C957        C958   1.401       .  A
C958        H961   1.084       .  S
C962        C963   1.405       .  A
C962        C967   1.409       .  A
C962       C1028   1.496       .  S
C963        C964   1.402       .  A
C963        H968   1.082       .  S
C964        C965   1.409       .  A
C964        C974   1.490       .  S
C965        C966   1.407       .  A
C965        H969   1.082       .  S
C966        C967   1.400       .  A
C966        C972   1.491       .  S
C967        H970   1.083       .  S
C971        C972   1.363       .  D
C972        C977   1.483       .  S
C973        C974   1.363   1_545  D
C975        C976   1.400       .  A
C975        C980   1.405       .  A
C975       C1021   1.484       .  S
C976        C977   1.401       .  A
C976        H981   1.084       .  S
C977        C978   1.406       .  A
C978        C979   1.405       .  A
C978        H982   1.082       .  S
C979        C980   1.400       .  A
C979        C993   1.487       .  S
C980        H983   1.084       .  S
C984        C985   1.401       .  A
C984        C989   1.395       .  A
C984       C1051   1.467       .  S
C985        C986   1.403       .  A
C985        H990   1.084   1_655  S
C986        C987   1.411       .  A
C987        C988   1.411       .  A
C987        H991   1.082       .  S
C988        C989   1.398       .  A
C988        C994   1.488       .  S
C989        H992   1.085       .  S
C993        C994   1.363       .  D
O995       C1003   1.253       .  A
O996        C997   1.272       .  A
C997       C1108   1.479       .  S
C997        O998   1.249       .  A
O998      Cr1014   1.925       .  S
O999       C1000   1.270       .  A
C1000      C1088   1.487       .  S
C1000      O1001   1.250       .  A
O1002     Cr1015   2.035       .  S
O1002      C1003   1.273       .  A
C1003      C1081   1.494       .  S
O1004      C1012   1.270       .  A
O1005      C1006   1.251       .  A
C1006      C1041   1.467       .  S
C1006      O1007   1.270       .  A
O1007     Cr1014   2.030       .  S
O1008      C1009   1.249       .  A
C1009      C1031   1.492       .  S
C1009      O1010   1.272       .  A
O1011     Cr1015   1.934       .  S
O1011      C1012   1.249       .  A
C1012      C1018   1.487       .  S
C1017      C1018   1.405       .  A
C1017      C1022   1.405       .  A
C1017      F1024   1.357       .  S
C1018      C1019   1.416       .  A
C1019      C1020   1.388       .  A
C1019      F1026   1.357       .  S
C1020      C1021   1.399       .  A
C1020      F1025   1.359       .  S
C1021      C1022   1.414       .  A
C1022      F1023   1.358       .  S
C1027      C1028   1.418       .  A
C1027      C1032   1.407       .  A
C1027      F1034   1.357       .  S
C1028      C1029   1.404       .  A
C1029      C1030   1.388       .  A
C1029      F1036   1.359       .  S
C1030      C1031   1.416       .  A
C1030      F1035   1.358       .  S
C1031      C1032   1.406       .  A
C1032      F1033   1.357       .  S
C1037      C1038   1.410       .  A
C1037      C1042   1.404       .  A
C1037      F1044   1.358       .  S
C1038      C1039   1.394       .  A
C1039      C1040   1.390       .  A
C1039      F1046   1.358       .  S
C1040      C1041   1.407       .  A
C1040      F1045   1.354   1_655  S
C1041      C1042   1.402       .  A
C1042      F1043   1.357       .  S
C1047      C1048   1.405       .  A
C1047      C1052   1.391       .  A
C1047      F1054   1.353       .  S
C1048      C1049   1.402       .  A
C1049      C1050   1.403       .  A
C1050      C1051   1.409       .  A
C1050      F1055   1.357       .  S
C1051      C1052   1.396       .  A
C1052      F1053   1.358       .  S
C1057      C1058   1.406       .  A
C1057      C1062   1.404       .  A
C1057      F1064   1.357       .  S
C1058      C1059   1.414       .  A
C1059      C1060   1.389       .  A
C1059      F1066   1.355       .  S
C1060      C1061   1.398       .  A
C1060      F1065   1.359       .  S
C1061      C1062   1.412       .  A
C1062      F1063   1.358       .  S
C1067      F1074   1.359       .  S
C1068      C1069   1.405       .  A
C1069      C1070   1.408       .  A
C1070      C1071   1.422       .  A
C1071      C1072   1.408       .  A
C1077      C1078   1.406       .  A
C1077      C1082   1.389       .  A
C1077      F1084   1.358       .  S
C1078      C1079   1.419       .  A
C1079      C1080   1.406       .  A
C1079      F1086   1.346       .  S
C1080      C1081   1.403       .  A
C1080      F1085   1.358       .  S
C1081      C1082   1.410       .  A
C1082      F1083   1.349       .  S
C1087      C1088   1.414       .  A
C1087      C1092   1.388       .  A
C1087      F1094   1.353   1_565  S
C1088      C1089   1.404       .  A
C1089      C1090   1.405       .  A
C1089      F1096   1.357       .  S
C1090      C1091   1.418       .  A
C1090      F1095   1.357       .  S
C1091      C1092   1.400       .  A
C1092      F1093   1.359       .  S
C1097      C1098   1.402       .  A
C1097      C1102   1.406       .  A
C1097      F1104   1.358       .  S
C1099      F1106   1.352       .  S
C1100      C1101   1.411       .  A
C1101      C1102   1.424       .  A
C1102      F1103   1.347       .  S
C1107      C1108   1.402       .  A
C1107      C1112   1.392       .  A
C1107      F1114   1.360       .  S
C1108      C1109   1.394       .  A
C1109      C1110   1.403       .  A
C1109      F1116   1.356       .  S
C1110      C1111   1.428       .  A
C1110      F1115   1.355       .  S
C1111      C1112   1.419       .  A
C1112      F1113   1.348       .  S
C1117      C1118   1.415       .  A
C1117      C1122   1.392       .  A
C1117      F1124   1.347       .  S
C1118      C1119   1.424   1_655  A
C1120      F1125   1.354       .  S
C1121      C1122   1.402       .  A
C1122      F1123   1.359       .  S
C1127      C1128   1.402       .  A
C1127      C1132   1.403       .  A
C1127      F1134   1.357       .  S
C1128      C1129   1.410   1_655  A
C1129      C1130   1.391   1_455  A
C1130      C1131   1.396       .  A
C1130      F1135   1.359   1_655  S
C1131      C1132   1.412       .  A
C1132      F1133   1.358       .  S
