geometry optimzed in LAMMPS
_audit_creation_date              2020-11-30 
_audit_creation_method            'lammps2cif' 
_symmetry_space_group_name_H-M    'P1' 
_symmetry_Int_Tables_number       1 
_symmetry_cell_setting            triclinic 
loop_ 
_symmetry_equiv_pos_as_xyz 
  x,y,z 
_cell_length_a                    108.44682498 
_cell_length_b                    108.56053348775072 
_cell_length_c                    24.489682527630375 
_cell_angle_alpha                 89.97420107954706 
_cell_angle_beta                  89.9817061489457 
_cell_angle_gamma                 120.16338375007726 
loop_ 
_atom_site_label 
_atom_site_type_symbol 
_atom_site_fract_x 
_atom_site_fract_y 
_atom_site_fract_z 
_atom_site_charge 
O1          O  0.07497277  0.45263055  0.34147174    -0.56600
C2          C  0.04731759  0.45120116  0.45602986     0.76000
O3          O  0.09244804  0.47140717  0.50678445    -0.57800
C4          C  0.08811710  0.45904571  0.32992094     0.76000
C5          C  0.08183456  0.49459247  0.40892253     0.78400
Cd6        Cd  0.07710495  0.46618314  0.42535824     1.37500
O7          O  0.05147672  0.44898289  0.41063304    -0.56600
O8          O  0.07181972  0.48381628  0.38556921    -0.55400
C9          C  0.08893964  0.45858305  0.51621351     0.78300
O10         O  0.09004878  0.49230307  0.43843539    -0.57800
O11         O  0.05698440  0.46022120  0.48689718    -0.56200
O12         O  0.09615696  0.46898753  0.36205438    -0.56200
O13         O  0.08016170  0.44946487  0.48310452    -0.55400
O14         O  0.93826204  0.39177886  0.60239986    -0.56600
C15         C  0.90175189  0.36487766  0.68057988     0.76000
O16         O  0.90227052  0.39825882  0.56408251    -0.57800
C17         C  0.94274003  0.39898964  0.55882881     0.76000
C18         C  0.90064458  0.36345954  0.49743203     0.78400
Cd19       Cd  0.91275411  0.38341817  0.58670704     1.37500
O20         O  0.91497446  0.37238773  0.67106993    -0.56600
O21         O  0.89556728  0.37122212  0.51169259    -0.55400
C22         C  0.90709013  0.40635629  0.60524573     0.78300
O23         O  0.91120955  0.36495811  0.52478460    -0.57800
O24         O  0.89358941  0.36602463  0.64666415    -0.56200
O25         O  0.93331380  0.39903097  0.52857514    -0.56200
O26         O  0.91421156  0.40353947  0.63865831    -0.55400
O27         O  0.06075184  0.27605539  0.74558176    -0.56600
C28         C  0.03136849  0.24013269  0.67261353     0.76000
O29         O  0.06579151  0.24335316  0.80634280    -0.57800
C30         C  0.06398950  0.28040440  0.79428640     0.76000
C31         C  0.02737947  0.23647608  0.84988370     0.78400
Cd32       Cd  0.04921777  0.25036849  0.76833945     1.37500
O33         O  0.03751618  0.25306500  0.68701754    -0.56600
O34         O  0.02917588  0.24731853  0.82388314    -0.55400
C35         C  0.07250803  0.24469685  0.76251613     0.78300
O36         O  0.03574103  0.23192378  0.83787932    -0.57800
O37         O  0.03389281  0.23201694  0.70176639    -0.56200
O38         O  0.06039560  0.27085693  0.83027328    -0.56200
O39         O  0.06824390  0.24841488  0.72093249    -0.55400
O40         O  0.15724643  0.42457975  0.89799233    -0.56600
C41         C  0.12375857  0.42629065  0.83658842     0.76000
O42         O  0.11399339  0.38879402  0.93995242    -0.57800
C43         C  0.16036662  0.41825623  0.93409012     0.76000
C44         C  0.12505781  0.42521303  0.01954012     0.78400
Cd45       Cd  0.13193149  0.41408646  0.92401940     1.37500
O46         O  0.13673805  0.43060284  0.84685463    -0.56600
O47         O  0.13453639  0.43329629  0.98583764    -0.55400
C48         C  0.11612807  0.38431904  0.89522326     0.78300
O49         O  0.11933921  0.41199698  0.01035065    -0.57800
O50         O  0.11474827  0.41652072  0.86720891    -0.56200
O51         O  0.15052338  0.41067976  0.96742165    -0.56200
O52         O  0.12546242  0.39365074  0.86417589    -0.55400
O53         O  0.95167888  0.20791296  0.35578983    -0.56600
C54         C  0.92881313  0.21207066  0.23273914     0.76000
O55         O  0.95197448  0.19039027  0.18505539    -0.57800
C56         C  0.96060501  0.20374361  0.36159438     0.76000
C57         C  0.91933852  0.16748667  0.28399962     0.78400
Cd58       Cd  0.94239220  0.19628058  0.26637519     1.37500
O59         O  0.93834056  0.21671221  0.26931171    -0.56600
O60         O  0.92014772  0.17787251  0.31055643    -0.55400
C61         C  0.96116077  0.20315599  0.17388629     0.78300
O62         O  0.92944562  0.17046836  0.25100856    -0.57800
O63         O  0.92528307  0.19994200  0.21336516    -0.56200
O64         O  0.96062737  0.19569621  0.32438929    -0.56200
O65         O  0.96171938  0.21250213  0.20617907    -0.55400
O66         O  0.87368433  0.28746677  0.00178449    -0.56600
C67         C  0.87834631  0.26423340  0.10984683     0.76000
O68         O  0.85456049  0.28791268  0.16286118    -0.57800
C69         C  0.86771221  0.29472184  0.99235146     0.76000
C70         C  0.83221272  0.25175813  0.08479489     0.78400
Cd71       Cd  0.86069247  0.27663129  0.08738579     1.37500
O72         O  0.87353831  0.26372003  0.06225437    -0.56600
O73         O  0.83790292  0.25922214  0.04266115    -0.55400
C74         C  0.86737486  0.29738390  0.17248086     0.78300
O75         O  0.83945748  0.25611084  0.12817152    -0.57800
O76         O  0.87519067  0.27066132  0.14520271    -0.56200
O77         O  0.85819058  0.29318334  0.02604170    -0.56200
O78         O  0.87671823  0.29727679  0.14197208    -0.55400
O79         O  0.87975449  0.60000183  0.13575856    -0.56600
C80         C  0.86988573  0.56833224  0.00514367     0.76000
O81         O  0.86058162  0.55833606  0.14390057    -0.57800
C82         C  0.87871116  0.60884590  0.10535314     0.76000
C83         C  0.83090245  0.57252371  0.09698985     0.78400
Cd84       Cd  0.86019089  0.57828471  0.09605574     1.37500
O85         O  0.87650230  0.58119824  0.02052072    -0.56600
O86         O  0.83767801  0.57423567  0.05300383    -0.55400
C87         C  0.86592410  0.56516976  0.18760490     0.78300
O88         O  0.83756641  0.57319403  0.14022775    -0.57800
O89         O  0.85852891  0.56019442  0.03082270    -0.56200
O90         O  0.86915323  0.60354905  0.06886204    -0.56200
O91         O  0.86787777  0.57766871  0.18925246    -0.55400
O92         O  0.96138458  0.74116800  0.29595205    -0.56600
C93         C  0.93284555  0.71401645  0.19467267     0.76000
O94         O  0.92877834  0.74917714  0.18927317    -0.57800
C95         C  0.96628342  0.75347174  0.31623963     0.76000
C96         C  0.96780092  0.76049348  0.13757620     0.78400
Cd97       Cd  0.94742465  0.74413152  0.22203427     1.37500
O98         O  0.93363478  0.71834231  0.24319103    -0.56600
O99         O  0.96737525  0.74982568  0.16039327    -0.55400
C100        C  0.92321149  0.74838522  0.23547758     0.78300
O101        O  0.95873203  0.76373138  0.15417389    -0.57800
O102        O  0.93898933  0.72362654  0.15893760    -0.56200
O103        O  0.96225685  0.76131607  0.29340120    -0.56200
O104        O  0.92909679  0.74598682  0.27544792    -0.55400
O105        O  0.12184092  0.73456494  0.92060491    -0.56600
C106        C  0.11934511  0.69792042  0.99771483     0.76000
O107        O  0.12993595  0.71280988  0.80819384    -0.57800
C108        C  0.11203445  0.72934786  0.88519110     0.76000
C109        C  0.15879501  0.74112838  0.91932092     0.78400
Cd110      Cd  0.13013372  0.71730869  0.90601501     1.37500
O111        O  0.11108979  0.69848659  0.96263711    -0.56600
O112        O  0.14932037  0.73769934  0.95558079    -0.55400
C113        C  0.13027276  0.70136221  0.81205457     0.78300
O114        O  0.15507085  0.73335363  0.87714593    -0.57800
O115        O  0.13253594  0.70632567  0.99035052    -0.56200
O116        O  0.11030612  0.71827891  0.86138959    -0.56200
O117        O  0.13120205  0.69753250  0.86000493    -0.55400
O118        O  0.03500238  0.78325662  0.67306537    -0.56600
C119        C  0.06373170  0.78363564  0.76345514     0.76000
O120        O  0.06589819  0.82887610  0.73215327    -0.57800
C121        C  0.03535039  0.79120703  0.63458473     0.76000
C122        C  0.03580481  0.80142476  0.82172327     0.78400
Cd123      Cd  0.05329052  0.80237965  0.73081390     1.37500
O124        O  0.06437909  0.78747724  0.71417637    -0.56600
O125        O  0.03096167  0.79885285  0.77347071    -0.55400
C126        C  0.07795245  0.83065577  0.71858886     0.78300
O127        O  0.04883830  0.80526131  0.82668233    -0.57800
O128        O  0.05808045  0.78829000  0.79638778    -0.56200
O129        O  0.04415912  0.80437545  0.64023872    -0.56200
O130        O  0.07829486  0.81942583  0.70843007    -0.55400
O131        O  0.94183324  0.53282364  0.58219611    -0.56600
C132        C  0.90763188  0.53835613  0.68634881     0.76000
O133        O  0.91816174  0.54317000  0.51202620    -0.57800
C134        C  0.94864498  0.54625315  0.57927628     0.76000
C135        C  0.91218729  0.50109070  0.60205179     0.78400
Cd136      Cd  0.91810931  0.52998233  0.59313080     1.37500
O137        O  0.91972089  0.53924144  0.68694369    -0.56600
O138        O  0.91190452  0.50784283  0.64373658    -0.55400
C139        C  0.90576343  0.53427498  0.49561622     0.78300
O140        O  0.91442585  0.50749136  0.55682387    -0.57800
O141        O  0.90045261  0.53345832  0.64309231    -0.56200
O142        O  0.94132438  0.55230181  0.58478851    -0.56200
O143        O  0.89894242  0.52315442  0.52440808    -0.55400
O144        O  0.08968830  0.59759815  0.44315287    -0.56600
C145        C  0.09500925  0.63448601  0.49718826     0.76000
O146        O  0.07521453  0.62421239  0.33738138    -0.57800
C147        C  0.08456377  0.58896565  0.40367998     0.76000
C148        C  0.05078618  0.59808792  0.45282825     0.78400
Cd149      Cd  0.07996064  0.61285288  0.41555121     1.37500
O150        O  0.10014468  0.62717915  0.47806753    -0.56600
O151        O  0.06103349  0.59981894  0.48280157    -0.55400
C152        C  0.08769108  0.63013224  0.31777854     0.78300
O153        O  0.05407003  0.60313112  0.40502250    -0.57800
O154        O  0.08311127  0.63180248  0.47786257    -0.56200
O155        O  0.07780029  0.59176274  0.36841906    -0.56200
O156        O  0.09644654  0.62764889  0.34257854    -0.55400
O157        O  0.61421707  0.53457782  0.71857341    -0.56600
C158        C  0.59235931  0.53999182  0.59618840     0.76000
O159        O  0.61891689  0.51970143  0.55030214    -0.57800
C160        C  0.62317578  0.53048353  0.72535792     0.76000
C161        C  0.58436536  0.49560625  0.63387711     0.78400
Cd162      Cd  0.60695882  0.52472558  0.62566429     1.37500
O163        O  0.60310559  0.54538975  0.62738218    -0.56600
O164        O  0.58710277  0.50435095  0.67254205    -0.55400
C165        C  0.62749512  0.53262479  0.53885043     0.78300
O166        O  0.59244347  0.50027883  0.59255317    -0.57800
O167        O  0.58815668  0.52742468  0.58025011    -0.56200
O168        O  0.62434559  0.52349209  0.68643413    -0.56200
O169        O  0.62656062  0.54173677  0.56790666    -0.55400
O170        O  0.54211455  0.61868554  0.35426775    -0.56600
C171        C  0.54130611  0.59109185  0.46896293     0.76000
O172        O  0.52271655  0.61762541  0.51530499    -0.57800
C173        C  0.53611844  0.62580426  0.34289509     0.76000
C174        C  0.49844316  0.58408895  0.41640081     0.78400
Cd175      Cd  0.52743934  0.60667548  0.43551464     1.37500
O176        O  0.54194238  0.59515770  0.42002844    -0.56600
O177        O  0.50884245  0.58537806  0.38849646    -0.55400
C178        C  0.53571924  0.62636600  0.52531707     0.78300
O179        O  0.50144137  0.59349407  0.45257410    -0.57800
O180        O  0.53415731  0.59409726  0.50155065    -0.56200
O181        O  0.52593831  0.62381547  0.37379290    -0.56200
O182        O  0.54466374  0.62610792  0.49281537    -0.55400
O183        O  0.72916479  0.56759043  0.15402603    -0.56600
C184        C  0.69401906  0.56548379  0.21563060     0.76000
O185        O  0.72718010  0.59828572  0.18327993    -0.57800
C186        C  0.73740033  0.57205490  0.11319922     0.76000
C187        C  0.69430779  0.56582501  0.03409144     0.78400
Cd188      Cd  0.71365944  0.57711803  0.12569581     1.37500
O189        O  0.70088423  0.55962253  0.19891137    -0.56600
O190        O  0.69470944  0.55779496  0.07065125    -0.55400
C191        C  0.72695222  0.60711091  0.15009559     0.78300
O192        O  0.70326737  0.57894154  0.03900835    -0.57800
O193        O  0.69625198  0.57656694  0.19024649    -0.56200
O194        O  0.73443336  0.57857381  0.07743829    -0.56200
O195        O  0.72083729  0.60203944  0.10494370    -0.55400
O196        O  0.79297405  0.74184933  0.35950123    -0.56600
C197        C  0.78221925  0.71201548  0.24111838     0.76000
O198        O  0.80600527  0.75804634  0.18680312    -0.57800
C199        C  0.79528576  0.75447772  0.35890909     0.76000
C200        C  0.82938245  0.74575666  0.27014100     0.78400
Cd201      Cd  0.80086126  0.74181900  0.26476661     1.37500
O202        O  0.79246668  0.72017723  0.21021547    -0.56600
O203        O  0.81925365  0.73658097  0.29899975    -0.55400
C204        C  0.79313016  0.75276758  0.17207101     0.78300
O205        O  0.82644932  0.75349568  0.24062623    -0.57800
O206        O  0.78078043  0.71763959  0.28411767    -0.56200
O207        O  0.80066846  0.76139355  0.31543362    -0.56200
O208        O  0.78395056  0.74264692  0.20096225    -0.55400
O209        O  0.76697673  0.79961876  0.69777310    -0.56600
C210        C  0.71857388  0.77888157  0.79458347     0.76000
O211        O  0.76141762  0.80016603  0.85188814    -0.57800
C212        C  0.75916531  0.78889403  0.66840183     0.76000
C213        C  0.75228020  0.82348537  0.74294142     0.78400
Cd214      Cd  0.74822698  0.79549282  0.76437735     1.37500
O215        O  0.72309237  0.77724269  0.74907667    -0.56600
O216        O  0.74200235  0.81227174  0.72303546    -0.55400
C217        C  0.76089140  0.78825065  0.85339337     0.78300
O218        O  0.76091586  0.82179136  0.77237052    -0.57800
O219        O  0.72782545  0.78829663  0.82566780    -0.56200
O220        O  0.74626064  0.78150647  0.68304132    -0.56200
O221        O  0.75490371  0.78009111  0.81322489    -0.55400
O222        O  0.58668785  0.70232515  0.01777991    -0.56600
C223        C  0.61451291  0.72662676  0.90488700     0.76000
O224        O  0.56917938  0.70332075  0.85398051    -0.57800
C225        C  0.57375736  0.69659028  0.03187175     0.76000
C226        C  0.58087059  0.73840315  0.93833474     0.78400
Cd227      Cd  0.58476492  0.71387832  0.93410845     1.37500
O228        O  0.61038918  0.72394432  0.95404053    -0.56600
O229        O  0.59085499  0.73803593  0.96352308    -0.55400
C230        C  0.57183855  0.69331511  0.84752171     0.78300
O231        O  0.57229394  0.72716210  0.91301798    -0.57800
O232        O  0.60484315  0.72349382  0.86967529    -0.56200
O233        O  0.56595700  0.69932606  0.00177710    -0.56200
O234        O  0.58029989  0.69281399  0.88173653    -0.55400
O235        O  0.44179188  0.38625045  0.60167060    -0.56600
C236        C  0.45547186  0.36232445  0.68662469     0.76000
O237        O  0.44613569  0.36112304  0.53515713    -0.57800
C238        C  0.44535306  0.39423848  0.55998313     0.76000
C239        C  0.48973831  0.40505767  0.61341323     0.78400
Cd240      Cd  0.46166767  0.38115207  0.59400206     1.37500
O241        O  0.45093328  0.37102232  0.68422748    -0.56600
O242        O  0.47885455  0.40369794  0.63790604    -0.55400
C243        C  0.45579606  0.36262685  0.50219898     0.78300
O244        O  0.48765752  0.39504811  0.58141846    -0.57800
O245        O  0.46306366  0.36262027  0.64693346    -0.56200
O246        O  0.45632888  0.39602660  0.53491588    -0.56200
O247        O  0.46825737  0.37275706  0.51213378    -0.55400
O248        O  0.38275091  0.44107089  0.42080263    -0.56600
C249        C  0.36307806  0.45663276  0.32518158     0.76000
O250        O  0.36925564  0.46880554  0.49505478    -0.57800
C251        C  0.39532584  0.44686416  0.43936269     0.76000
C252        C  0.40421474  0.49198650  0.41030269     0.78400
Cd253      Cd  0.38106028  0.46304373  0.42023576     1.37500
O254        O  0.37279543  0.45344333  0.32767564    -0.56600
O255        O  0.39944064  0.48379508  0.36934618    -0.55400
C256        C  0.36191953  0.45611114  0.51205239     0.78300
O257        O  0.39787045  0.48686972  0.45517947    -0.57800
O258        O  0.36205437  0.46321001  0.36593515    -0.56200
O259        O  0.40132260  0.46010836  0.44806608    -0.56200
O260        O  0.36378794  0.44696481  0.48735993    -0.55400
O261        O  0.20271912  0.26552759  0.81309564    -0.56600
C262        C  0.19908734  0.23712088  0.64369914     0.76000
O263        O  0.18784946  0.23108501  0.82504157    -0.57800
C264        C  0.20762120  0.27576346  0.77955451     0.76000
C265        C  0.16333918  0.24126469  0.73975141     0.78400
Cd266      Cd  0.19218007  0.24637080  0.74457581     1.37500
O267        O  0.20573059  0.24996612  0.65916982    -0.56600
O268        O  0.17359052  0.25133121  0.71428830    -0.55400
C269        C  0.20050513  0.23346026  0.82889027     0.78300
O270        O  0.16629545  0.23304903  0.76603276    -0.57800
O271        O  0.18899605  0.22855499  0.67432814    -0.56200
O272        O  0.20555654  0.27240736  0.72953824    -0.56200
O273        O  0.20913885  0.24151178  0.79265228    -0.55400
O274        O  0.28456514  0.40587151  0.00615448    -0.56600
C275        C  0.26079336  0.37876706  0.89743405     0.76000
O276        O  0.25594529  0.41255842  0.87777369    -0.57800
C277        C  0.29157088  0.41896533  0.01835281     0.76000
C278        C  0.29630292  0.42355774  0.83804061     0.78400
Cd279      Cd  0.27460030  0.40901960  0.92024594     1.37500
O280        O  0.25927407  0.38331648  0.94302391    -0.56600
O281        O  0.29650168  0.41475659  0.87133422    -0.55400
C282        C  0.25116338  0.41462476  0.92177512     0.78300
O283        O  0.28611210  0.42601089  0.84364547    -0.57800
O284        O  0.26880266  0.38819248  0.86355927    -0.56200
O285        O  0.29041589  0.42735992  0.98562787    -0.56200
O286        O  0.25753213  0.41450791  0.96484086    -0.55400
O287        O  0.40940051  0.28470150  0.00863296    -0.56600
C288        C  0.38368286  0.26255171  0.12982911     0.76000
O289        O  0.42645750  0.26275263  0.10492877    -0.57800
C290        C  0.42216391  0.29061834  0.99221308     0.76000
C291        C  0.42617208  0.29597590  0.18136270     0.78400
Cd292      Cd  0.41297013  0.27539887  0.09506696     1.37500
O293        O  0.38765577  0.26814487  0.08300915    -0.56600
O294        O  0.41828208  0.29696492  0.14569695    -0.55400
C295        C  0.41670624  0.25102093  0.08605529     0.78300
O296        O  0.42838085  0.28566369  0.17585786    -0.57800
O297        O  0.39332266  0.26296080  0.16011453    -0.56200
O298        O  0.43076558  0.28928741  0.02316055    -0.56200
O299        O  0.40554990  0.25083539  0.06988790    -0.55400
O300        O  0.24991003  0.20714205  0.33284906    -0.56600
C301        C  0.27920798  0.21145921  0.22844881     0.76000
O302        O  0.23979489  0.17109852  0.21450357    -0.57800
C303        C  0.23683857  0.20330005  0.33631100     0.76000
C304        C  0.23791425  0.20266256  0.14675723     0.78400
Cd305      Cd  0.24858302  0.19588819  0.24395630     1.37500
O306        O  0.27256942  0.21732864  0.24720357    -0.56600
O307        O  0.24822806  0.21207323  0.17413827    -0.55400
C308        C  0.24259506  0.16692620  0.25864727     0.78300
O309        O  0.23250631  0.19002507  0.16423252    -0.57800
O310        O  0.27165299  0.19835532  0.21732821    -0.56200
O311        O  0.22903589  0.19548781  0.29787655    -0.56200
O312        O  0.24753218  0.17601358  0.29679947    -0.55400
O313        O  0.72829362  0.10964773  0.07863634    -0.56600
C314        C  0.70027967  0.11860371  0.00023832     0.76000
O315        O  0.71187909  0.13168021  0.18238921    -0.57800
C316        C  0.73133491  0.10908358  0.12816565     0.76000
C317        C  0.74321290  0.15486298  0.08015557     0.78400
Cd318      Cd  0.71909361  0.12627077  0.09434599     1.37500
O319        O  0.70716025  0.11234156  0.01124286    -0.56600
O320        O  0.73207196  0.15247985  0.10557365    -0.55400
C321        C  0.69998289  0.12024098  0.18510609     0.78300
O322        O  0.74290837  0.14407481  0.05918593    -0.57800
O323        O  0.70255972  0.12880950  0.03153091    -0.56200
O324        O  0.72871953  0.11644082  0.16110102    -0.56200
O325        O  0.69686301  0.11182125  0.14505586    -0.55400
O326        O  0.78495813  0.03230675  0.33843637    -0.56600
C327        C  0.78295701  0.05803592  0.24869909     0.76000
O328        O  0.82494901  0.06494247  0.22775126    -0.57800
C329        C  0.79261671  0.02759571  0.35785542     0.76000
C330        C  0.79868818  0.02830682  0.17241382     0.78400
Cd331      Cd  0.80161267  0.04642109  0.26432424     1.37500
O332        O  0.78021996  0.04623619  0.22812553    -0.56600
O333        O  0.79804430  0.03956093  0.16731549    -0.55400
C334        C  0.82986943  0.07136334  0.27251509     0.78300
O335        O  0.80143116  0.02575752  0.21990758    -0.57800
O336        O  0.79387556  0.06399199  0.27885874    -0.56200
O337        O  0.80453777  0.03193224  0.33479723    -0.56200
O338        O  0.82209202  0.06570796  0.31396992    -0.55400
O339        O  0.72200494  0.93508792  0.76063653    -0.56600
C340        C  0.75766994  0.95888493  0.67669967     0.76000
O341        O  0.76433784  0.95037360  0.84353471    -0.57800
C342        C  0.71653225  0.92513071  0.79546395     0.76000
C343        C  0.75169935  0.91611206  0.74795017     0.78400
Cd344      Cd  0.74662029  0.93946594  0.76878672     1.37500
O345        O  0.74459232  0.94962469  0.68102197    -0.56600
O346        O  0.74490924  0.91939129  0.71460575    -0.55400
C347        C  0.75927533  0.95772325  0.86276878     0.78300
O348        O  0.75650592  0.92396151  0.78974070    -0.57800
O349        O  0.76565762  0.95884908  0.71420130    -0.56200
O350        O  0.72500114  0.92179737  0.81744061    -0.56200
O351        O  0.74842959  0.95652188  0.83847553    -0.55400
O352        O  0.58388540  0.87459481  0.97462528    -0.56600
C353        C  0.61110524  0.87378078  0.88071863     0.76000
O354        O  0.57435873  0.83335681  0.87107570    -0.57800
C355        C  0.57168623  0.86739388  0.99595552     0.76000
C356        C  0.56624460  0.86302924  0.81704634     0.78400
Cd357      Cd  0.58090398  0.85748087  0.90345355     1.37500
O358        O  0.60201883  0.86731873  0.84346974    -0.56600
O359        O  0.57817764  0.87239599  0.83579341    -0.55400
C360        C  0.57679667  0.82904032  0.91550714     0.78300
O361        O  0.56091593  0.85080797  0.83858555    -0.57800
O362        O  0.60618357  0.87236864  0.92857207    -0.56200
O363        O  0.56366387  0.85524949  0.97508761    -0.56200
O364        O  0.58078781  0.83778271  0.95477653    -0.55400
O365        O  0.55173591  0.93295096  0.44410865    -0.56600
C366        C  0.53947849  0.90378126  0.31328447     0.76000
O367        O  0.52936652  0.89109229  0.45359046    -0.57800
C368        C  0.54821349  0.94205140  0.43151055     0.76000
C369        C  0.50099387  0.90674495  0.39893808     0.78400
Cd370      Cd  0.52980175  0.91188353  0.40961142     1.37500
O371        O  0.54811804  0.91300236  0.34643945    -0.56600
O372        O  0.51065609  0.91393706  0.36433368    -0.55400
C373        C  0.53063919  0.89575187  0.50186624     0.78300
O374        O  0.50460648  0.90163940  0.43817262    -0.57800
O375        O  0.52639288  0.89842778  0.32445826    -0.56200
O376        O  0.53635598  0.93721541  0.40740975    -0.56200
O377        O  0.53096253  0.90749920  0.50691783    -0.55400
O378        O  0.61986941  0.07105407  0.68483219    -0.56600
C379        C  0.60081468  0.04509734  0.55325555     0.76000
O380        O  0.59917035  0.08704714  0.57929527    -0.57800
C381        C  0.62801227  0.08419008  0.69426101     0.76000
C382        C  0.63309858  0.08780443  0.50762718     0.78400
Cd383      Cd  0.61223766  0.07398896  0.59253072     1.37500
O384        O  0.60567031  0.04857499  0.60133347    -0.56600
O385        O  0.63456564  0.08050540  0.54467906    -0.55400
C386        C  0.58756176  0.07754159  0.59998511     0.78300
O387        O  0.62215448  0.08908506  0.51113922    -0.57800
O388        O  0.60134365  0.05497122  0.52420649    -0.56200
O389        O  0.62848830  0.09257966  0.65737705    -0.56200
O390        O  0.58763029  0.06676075  0.61909437    -0.55400
O391        O  0.39474826  0.94103394  0.41586810    -0.56600
C392        C  0.36812324  0.90466453  0.33555063     0.76000
O393        O  0.39959646  0.90174364  0.43497811    -0.57800
C394        C  0.40050004  0.94513171  0.46238684     0.76000
C395        C  0.36760244  0.90310307  0.52092797     0.78400
Cd396      Cd  0.38693372  0.91552123  0.42972851     1.37500
O397        O  0.37601072  0.91787888  0.34405835    -0.56600
O398        O  0.36647033  0.91105233  0.48593670    -0.55400
C399        C  0.41075828  0.91095124  0.41070131     0.78300
O400        O  0.37781685  0.90077222  0.51372144    -0.57800
O401        O  0.36940077  0.89656660  0.36934947    -0.56200
O402        O  0.39990725  0.93550485  0.49326763    -0.56200
O403        O  0.41061643  0.92187851  0.39380084    -0.55400
O404        O  0.49453973  0.08908111  0.56770558    -0.56600
C405        C  0.46145771  0.09107938  0.50537961     0.76000
O406        O  0.45159661  0.05382629  0.61358196    -0.57800
C407        C  0.49795475  0.08385498  0.60707280     0.76000
C408        C  0.46314973  0.09142979  0.68832660     0.78400
Cd409      Cd  0.46940998  0.07921670  0.59478838     1.37500
O410        O  0.47441021  0.09530169  0.51595292    -0.56600
O411        O  0.47239705  0.09910579  0.65320739    -0.55400
C412        C  0.45318414  0.04912756  0.56837842     0.78300
O413        O  0.45715358  0.07811710  0.68081658    -0.57800
O414        O  0.45238646  0.08161061  0.53677662    -0.56200
O415        O  0.48827860  0.07693540  0.64189189    -0.56200
O416        O  0.46233983  0.05833043  0.53646936    -0.55400
O417        O  0.41397732  0.12040201  0.00586133    -0.56600
C418        C  0.38526937  0.11653176  0.11710533     0.76000
O419        O  0.43285579  0.13673190  0.16872774    -0.57800
C420        C  0.42725065  0.12626603  0.99742854     0.76000
C421        C  0.42091689  0.16052003  0.08234697     0.78400
Cd422      Cd  0.41557925  0.13185358  0.09420078     1.37500
O423        O  0.39078472  0.11160783  0.08448784    -0.56600
O424        O  0.41513698  0.15132517  0.04492272    -0.55400
C425        C  0.42764071  0.12387782  0.18317530     0.78300
O426        O  0.42465040  0.15651029  0.12464761    -0.57800
O427        O  0.39375595  0.12842099  0.13864804    -0.56200
O428        O  0.43515401  0.13501136  0.03350312    -0.56200
O429        O  0.41689977  0.11487419  0.15645131    -0.55400
O430        O  0.27802055  0.06491963  0.27820371    -0.56600
C431        C  0.24332849  0.03532497  0.36114535     0.76000
O432        O  0.23788579  0.06431987  0.24832442    -0.57800
C433        C  0.28158965  0.06543068  0.22865809     0.76000
C434        C  0.23752657  0.03108568  0.17856059     0.78400
Cd435      Cd  0.25201707  0.05231162  0.26214846     1.37500
O436        O  0.25530450  0.03957854  0.33882969    -0.56600
O437        O  0.24409728  0.02941604  0.21782753    -0.55400
C438        C  0.24683791  0.07601202  0.27011366     0.78300
O439        O  0.23742499  0.04270558  0.17815660    -0.57800
O440        O  0.23556611  0.03959360  0.33927764    -0.56200
O441        O  0.27144543  0.05995127  0.19472245    -0.56200
O442        O  0.25790193  0.07651593  0.28940431    -0.55400
O443        O  0.21978170  0.94037511  0.75777627    -0.56600
C444        C  0.20929816  0.96538196  0.67529153     0.76000
O445        O  0.17431038  0.93025271  0.78810629    -0.57800
C446        C  0.21487813  0.93022092  0.79177774     0.76000
C447        C  0.20584737  0.96327502  0.85955706     0.78400
Cd448      Cd  0.19984380  0.94529145  0.76524211     1.37500
O449        O  0.21029436  0.95425959  0.67344531    -0.56600
O450        O  0.21505760  0.96089656  0.83801893    -0.55400
C451        C  0.17061072  0.92351881  0.74340772     0.78300
O452        O  0.19365727  0.95718398  0.83737667    -0.57800
O453        O  0.20371461  0.96697420  0.71801759    -0.56200
O454        O  0.20288732  0.92687028  0.81231404    -0.56200
O455        O  0.18040444  0.92714145  0.70835469    -0.55400
O456        O  0.29013735  0.87398400  0.01347894    -0.56600
C457        C  0.26546899  0.87691465  0.89919730     0.76000
O458        O  0.29056930  0.85582793  0.85066501    -0.57800
C459        C  0.29683159  0.86760543  0.02551662     0.76000
C460        C  0.25411074  0.83241195  0.93892101     0.78400
Cd461      Cd  0.27900656  0.86069202  0.92887229     1.37500
O462        O  0.27013880  0.87729146  0.94688904    -0.56600
O463        O  0.25580776  0.84279029  0.96787758    -0.55400
C464        C  0.29952549  0.86879674  0.84108756     0.78300
O465        O  0.26428067  0.83492859  0.90695553    -0.57800
O466        O  0.26713605  0.86905598  0.86538497    -0.56200
O467        O  0.29487553  0.85758959  0.99378746    -0.56200
O468        O  0.29904266  0.87773659  0.87275463    -0.55400
C469        C  0.24274655  0.91857316  0.80039657    -0.13200
C470        C  0.23580912  0.90658103  0.83432550     0.17200
C471        C  0.22213719  0.90250751  0.85474164     0.03500
C472        C  0.21568621  0.91051656  0.84108951    -0.11700
C473        C  0.22254125  0.92253165  0.80681827    -0.02700
C474        C  0.23635508  0.92665387  0.78696520     0.02800
C475        C  0.24336277  0.89895028  0.85068290     0.09600
N476        N  0.21453951  0.89005641  0.88818868     0.66000
H477        H  0.20509710  0.90710267  0.85654081     0.18900
N478        N  0.24427291  0.93924847  0.75475797     0.76400
H479        H  0.25338401  0.92192439  0.78559392     0.10400
C480        C  0.24695096  0.89168360  0.81204310     0.04100
C481        C  0.25436087  0.88482714  0.82849902    -0.04600
C482        C  0.25830221  0.88501861  0.88339621    -0.23000
C483        C  0.25486858  0.89254928  0.92194063     0.13300
C484        C  0.24737258  0.89932184  0.90535925    -0.12200
N485        N  0.24269056  0.89078042  0.75626337     0.65000
H486        H  0.25681633  0.87912428  0.79817861     0.12900
N487        N  0.25892056  0.89348652  0.97799023     0.61600
H488        H  0.24481731  0.90506095  0.93519014     0.09000
O489        O  0.24842419  0.93836433  0.70753515    -0.39800
O490        O  0.24912299  0.95133109  0.77670417    -0.39000
O491        O  0.20847866  0.89056996  0.93142774    -0.39000
O492        O  0.21295032  0.87826793  0.87250007    -0.36700
O493        O  0.27133745  0.90275666  0.99259706    -0.37600
O494        O  0.24960542  0.88646060  0.01371133    -0.33800
O495        O  0.25198103  0.89659315  0.71931867    -0.35200
O496        O  0.22968892  0.88340089  0.74351480    -0.39500
C497        C  0.22637746  0.99841642  0.08983571    -0.13200
C498        C  0.22186899  0.00217553  0.04229254     0.17200
C499        C  0.22131413  0.01489662  0.04125994     0.03500
C500        C  0.22571132  0.02375736  0.08747948    -0.11700
C501        C  0.23088394  0.02033633  0.13436018    -0.02700
C502        C  0.23078602  0.00724543  0.13578700     0.02800
C503        C  0.21786711  0.99257730  0.99444496     0.09600
N504        N  0.21702159  0.01931214  0.99302537     0.66000
H505        H  0.22575442  0.03376303  0.08561715     0.18900
N506        N  0.23513543  0.00271751  0.18331829     0.76400
H507        H  0.22647190  0.98846708  0.09120386     0.10400
C508        C  0.22779144  0.98943764  0.97039402     0.04100
C509        C  0.22345587  0.97957829  0.92766270    -0.04600
C510        C  0.20944103  0.97288845  0.90737746    -0.23000
C511        C  0.19950952  0.97602670  0.93183048     0.13300
C512        C  0.20382037  0.98584129  0.97487300    -0.12200
N513        N  0.24238666  0.99644472  0.98801549     0.65000
H514        H  0.23128401  0.97743559  0.90925612     0.12900
N515        N  0.18498959  0.96922291  0.91417901     0.61600
H516        H  0.19608320  0.98803350  0.99386868     0.09000
O517        O  0.24470862  0.99939157  0.17954852    -0.39800
O518        O  0.22799905  0.00000894  0.22687152    -0.39000
O519        O  0.20985953  0.02551974  0.99716735    -0.39000
O520        O  0.22156328  0.01835041  0.94666020    -0.36700
O521        O  0.17632825  0.95668490  0.92964299    -0.37600
O522        O  0.18038608  0.97637411  0.88998513    -0.33800
O523        O  0.24867710  0.98941418  0.99411928    -0.35200
O524        O  0.24937207  0.00982674  0.99308154    -0.39500
C525        C  0.23990557  0.00818027  0.46767947    -0.13200
C526        C  0.22713043  0.00501094  0.49374472     0.17200
C527        C  0.22005894  0.01238720  0.47800188     0.03500
C528        C  0.22579988  0.02257850  0.43604895    -0.11700
C529        C  0.23842379  0.02551812  0.40889777    -0.02700
C530        C  0.24558882  0.01829035  0.42574551     0.02800
C531        C  0.22184724  0.99452576  0.53924341     0.09600
N532        N  0.20684556  0.00933376  0.50295080     0.66000
H533        H  0.22010551  0.02794877  0.42360651     0.18900
N534        N  0.25851555  0.02086332  0.40014129     0.76400
H535        H  0.24556995  0.00277933  0.48021969     0.10400
C536        C  0.21915758  0.98048112  0.53193647     0.04100
C537        C  0.21551353  0.97135323  0.57716798    -0.04600
C538        C  0.21417069  0.97580030  0.62961723    -0.23000
C539        C  0.21692894  0.98991399  0.63678254     0.13300
C540        C  0.22061740  0.99903177  0.59156567    -0.12200
N541        N  0.21967753  0.97523082  0.47869821     0.65000
H542        H  0.21324672  0.96052010  0.57087643     0.12900
N543        N  0.21673250  0.99540892  0.68981862     0.61600
H544        H  0.22307158  0.00993556  0.59764538     0.09000
O545        O  0.25818393  0.01234009  0.36436837    -0.39800
O546        O  0.27035761  0.03044511  0.41852672    -0.39000
O547        O  0.20477413  0.01937676  0.51635789    -0.39000
O548        O  0.19680076  0.99661948  0.50765806    -0.36700
O549        O  0.22467042  0.99524492  0.72717234    -0.37600
O550        O  0.21045125  0.00241945  0.69680494    -0.33800
O551        O  0.22529135  0.96758011  0.47227311    -0.35200
O552        O  0.21346308  0.97719557  0.43890278    -0.39500
C553        C  0.31542870  0.07721135  0.14484825    -0.13200
C554        C  0.32602974  0.08478525  0.18393506     0.17200
C555        C  0.32198512  0.08585619  0.23768434     0.03500
C556        C  0.30748969  0.07958473  0.25099958    -0.11700
C557        C  0.29680068  0.07208405  0.21188693    -0.02700
C558        C  0.30092999  0.07092056  0.15813577     0.02800
C559        C  0.34122380  0.09261689  0.16680457     0.09600
N560        N  0.33249317  0.09311265  0.27925914     0.66000
H561        H  0.30458814  0.08050378  0.29261064     0.18900
N562        N  0.29059705  0.06355615  0.11633833     0.76400
H563        H  0.31845344  0.07651186  0.10316704     0.10400
C564        C  0.34798450  0.08561743  0.14364175     0.04100
C565        C  0.36215859  0.09372111  0.12541671    -0.04600
C566        C  0.36983816  0.10863490  0.13071967    -0.23000
C567        C  0.36288654  0.11559942  0.15270309     0.13300
C568        C  0.34876332  0.10751477  0.17087885    -0.12200
N569        N  0.34083090  0.07034437  0.14033185     0.65000
H570        H  0.36742782  0.08824796  0.10916910     0.12900
N571        N  0.36977264  0.13084867  0.15485041     0.61600
H572        H  0.34343970  0.11295368  0.18700443     0.09000
O573        O  0.28852928  0.05170350  0.09921964    -0.39800
O574        O  0.28533858  0.06990409  0.09058088    -0.39000
O575        O  0.33172597  0.10207251  0.30976500    -0.39000
O576        O  0.34200915  0.08990079  0.28796342    -0.36700
O577        O  0.37514291  0.13811317  0.11210441    -0.37600
O578        O  0.36869109  0.13690001  0.19709623    -0.33800
O579        O  0.34286983  0.06440962  0.09978140    -0.35200
O580        O  0.33357545  0.06278010  0.18015982    -0.39500
C581        C  0.45047904  0.12431976  0.30250386    -0.13200
C582        C  0.44465654  0.10969663  0.31205600     0.17200
C583        C  0.43347558  0.09980763  0.27854343     0.03500
C584        C  0.42804844  0.10474238  0.23751787    -0.11700
C585        C  0.43368489  0.11938947  0.22822069    -0.02700
C586        C  0.44511020  0.12926032  0.26121301     0.02800
C587        C  0.44924386  0.10495370  0.36083270     0.09600
N588        N  0.42768722  0.08475540  0.28529209     0.66000
H589        H  0.41945220  0.09697362  0.21201653     0.18900
N590        N  0.45104523  0.14429137  0.25482650     0.76400
H591        H  0.45892423  0.13199531  0.32882844     0.10400
C592        C  0.46359931  0.10876812  0.36933879     0.04100
C593        C  0.46742309  0.10464585  0.41785924    -0.04600
C594        C  0.45717727  0.09655923  0.45779116    -0.23000
C595        C  0.44285213  0.09301251  0.44933367     0.13300
C596        C  0.43907372  0.09716606  0.40105456    -0.12200
N597        N  0.47424893  0.11630480  0.32834018     0.65000
H598        H  0.47843755  0.10732518  0.42334027     0.12900
N599        N  0.43205959  0.08551910  0.48971339     0.61600
H600        H  0.42807646  0.09455500  0.39537689     0.09000
O601        O  0.46393699  0.15197257  0.24099488    -0.39800
O602        O  0.44416928  0.15010890  0.27140830    -0.39000
O603        O  0.41438609  0.07636955  0.28282571    -0.39000
O604        O  0.43589405  0.07970404  0.28951448    -0.36700
O605        O  0.43292222  0.09122380  0.53552708    -0.37600
O606        O  0.42068550  0.07431332  0.47684687    -0.33800
O607        O  0.48650551  0.12616877  0.34186959    -0.35200
O608        O  0.47186490  0.11229521  0.27916648    -0.39500
C609        C  0.46026400  0.11728500  0.78612266    -0.13200
C610        C  0.45114599  0.10788878  0.82615662     0.17200
C611        C  0.44645656  0.09323628  0.82185024     0.03500
C612        C  0.45050065  0.08819613  0.77658897    -0.11700
C613        C  0.45938077  0.09749793  0.73557185    -0.02700
C614        C  0.46436445  0.11226550  0.74085156     0.02800
C615        C  0.44537668  0.11324267  0.86903931     0.09600
N616        N  0.43769674  0.08340248  0.86344414     0.66000
H617        H  0.44676208  0.07688420  0.77389243     0.18900
N618        N  0.47298720  0.12223383  0.69958069     0.76400
H619        H  0.46371318  0.12853964  0.78882141     0.10400
C620        C  0.45426861  0.12369562  0.90708499     0.04100
C621        C  0.44816097  0.12833811  0.94671573    -0.04600
C622        C  0.43330443  0.12267869  0.94959630    -0.23000
C623        C  0.42453508  0.11272877  0.90947861     0.13300
C624        C  0.43064719  0.10803237  0.87028491    -0.12200
N625        N  0.46938112  0.12920497  0.90756001     0.65000
H626        H  0.45507491  0.13598218  0.97699971     0.12900
N627        N  0.40947714  0.10739312  0.90733068     0.61600
H628        H  0.42383863  0.10035224  0.83984728     0.09000
O629        O  0.48504963  0.13262647  0.71192038    -0.39800
O630        O  0.46758020  0.12209873  0.65378797    -0.39000
O631        O  0.42701726  0.07159916  0.85048951    -0.39000
O632        O  0.44114281  0.08608063  0.91309552    -0.36700
O633        O  0.40491037  0.11591512  0.89998805    -0.37600
O634        O  0.40093267  0.09416326  0.90338810    -0.33800
O635        O  0.47784651  0.14237734  0.91397220    -0.35200
O636        O  0.47425818  0.12081611  0.90647409    -0.39500
C637        C  0.34820683  0.88251120  0.64956777    -0.13200
C638        C  0.33730360  0.88584976  0.65350235     0.17200
C639        C  0.33631601  0.89467091  0.61345530     0.03500
C640        C  0.34639416  0.90021154  0.57130271    -0.11700
C641        C  0.35740164  0.89699112  0.56725008    -0.02700
C642        C  0.35821837  0.88796995  0.60701445     0.02800
C643        C  0.32779612  0.88113868  0.70202608     0.09600
N644        N  0.32502939  0.89793671  0.61466806     0.66000
H645        H  0.34544004  0.90696431  0.54092630     0.18900
N646        N  0.36929092  0.88448983  0.60561006     0.76400
H647        H  0.34917471  0.87590874  0.68062865     0.10400
C648        C  0.31907914  0.86661423  0.71576388     0.04100
C649        C  0.31027175  0.86284733  0.76215664    -0.04600
C650        C  0.30978996  0.87326500  0.79480706    -0.23000
C651        C  0.31880585  0.88779003  0.78128553     0.13300
C652        C  0.32769541  0.89153937  0.73558647    -0.12200
N653        N  0.31866695  0.85559968  0.68209582     0.65000
H654        H  0.30342935  0.85164268  0.77173192     0.12900
N655        N  0.31895215  0.89891776  0.81292745     0.61600
H656        H  0.33455006  0.90274546  0.72590643     0.09000
O657        O  0.36657091  0.87234621  0.58941261    -0.39800
O658        O  0.38116867  0.89272959  0.62760582    -0.39000
O659        O  0.32766305  0.91045817  0.60511127    -0.39000
O660        O  0.31226027  0.88812204  0.62100271    -0.36700
O661        O  0.32809823  0.90484973  0.85022706    -0.37600
O662        O  0.31133907  0.90412672  0.79867718    -0.33800
O663        O  0.31874862  0.84508226  0.70370341    -0.35200
O664        O  0.31699985  0.85572584  0.63112042    -0.39500
C665        C  0.34542238  0.90177263  0.21174646    -0.13200
C666        C  0.33587992  0.88703170  0.20951945     0.17200
C667        C  0.33735083  0.87806945  0.24756941     0.03500
C668        C  0.34825972  0.88404141  0.28677662    -0.11700
C669        C  0.35761758  0.89884725  0.28998511    -0.02700
C670        C  0.35615077  0.90773380  0.25145130     0.02800
C671        C  0.32498888  0.88121716  0.16531271     0.09600
N672        N  0.32756960  0.86298916  0.24818753     0.66000
H673        H  0.34907981  0.87701992  0.31631106     0.18900
N674        N  0.36548062  0.92282254  0.25176854     0.76400
H675        H  0.34458693  0.90874948  0.18199197     0.10400
C676        C  0.31538956  0.88625659  0.15697277     0.04100
C677        C  0.30640211  0.88166547  0.11115999    -0.04600
C678        C  0.30646720  0.87186913  0.07377075    -0.23000
C679        C  0.31582615  0.86656277  0.08318423     0.13300
C680        C  0.32494161  0.87127969  0.12854656    -0.12200
N681        N  0.31446126  0.89580593  0.19511573     0.65000
H682        H  0.29911456  0.88566836  0.10524317     0.12900
N683        N  0.31667244  0.85685303  0.04604479     0.61600
H684        H  0.33242109  0.86749102  0.13411606     0.09000
O685        O  0.36135085  0.93078481  0.27239885    -0.39800
O686        O  0.37693201  0.92825337  0.22471359    -0.39000
O687        O  0.33210586  0.85444513  0.25557883    -0.39000
O688        O  0.31429432  0.85822714  0.24637472    -0.36700
O689        O  0.32307628  0.86136532  0.00106223    -0.37600
O690        O  0.31310501  0.84442199  0.06169459    -0.33800
O691        O  0.31272964  0.90582035  0.17819067    -0.35200
O692        O  0.31406240  0.89349351  0.24579608    -0.39500
C693        C  0.42084270  0.97953622  0.54455165    -0.13200
C694        C  0.41932641  0.98922070  0.51136823     0.17200
C695        C  0.41152923  0.98435295  0.46224094     0.03500
C696        C  0.40575086  0.97004349  0.44678123    -0.11700
C697        C  0.40734587  0.96031372  0.47971577    -0.02700
C698        C  0.41504233  0.96523764  0.52926565     0.02800
C699        C  0.42728789  0.00461417  0.52574647     0.09600
N700        N  0.40918123  0.99375194  0.42824515     0.66000
H701        H  0.39970297  0.96645587  0.40912830     0.18900
N702        N  0.41760225  0.95607477  0.56356354     0.76400
H703        H  0.42711252  0.98325510  0.58169421     0.10400
C704        C  0.42571366  0.00962534  0.57699770     0.04100
C705        C  0.43444170  0.02408119  0.59041601    -0.04600
C706        C  0.44465495  0.03377606  0.55346401    -0.23000
C707        C  0.44615245  0.02864837  0.50219736     0.13300
C708        C  0.43750215  0.01423907  0.48896763    -0.12200
N709        N  0.41509602  0.00024852  0.61518268     0.65000
H710        H  0.43300060  0.02779342  0.62971282     0.12900
N711        N  0.45656520  0.03783238  0.46330258     0.61600
H712        H  0.43903417  0.01044755  0.44997266     0.09000
O713        O  0.41369252  0.95433625  0.61287684    -0.39800
O714        O  0.42580264  0.95172046  0.54739716    -0.39000
O715        O  0.41035397  0.99347448  0.37704014    -0.39000
O716        O  0.40493748  0.00162209  0.44894269    -0.36700
O717        O  0.46937045  0.04086743  0.46837726    -0.37600
O718        O  0.45264358  0.04120383  0.42006758    -0.33800
O719        O  0.41819614  0.00058599  0.66504322    -0.35200
O720        O  0.40234968  0.99237429  0.59994830    -0.39500
C721        C  0.54920267  0.06925978  0.61566451    -0.13200
C722        C  0.55070758  0.08273892  0.60801394     0.17200
C723        C  0.56438857  0.09459203  0.59792876     0.03500
C724        C  0.57617459  0.09255197  0.59439002    -0.11700
C725        C  0.57467983  0.07902151  0.60183598    -0.02700
C726        C  0.56094570  0.06723873  0.61201650     0.02800
C727        C  0.53764780  0.08388451  0.60773907     0.09600
N728        N  0.56651943  0.10871662  0.59215927     0.66000
H729        H  0.58665784  0.10169501  0.58717963     0.18900
N730        N  0.55857712  0.05304935  0.61605533     0.76400
H731        H  0.53868741  0.06010742  0.62242063     0.10400
C732        C  0.53325387  0.08824821  0.56077981     0.04100
C733        C  0.52074008  0.08904633  0.56296242    -0.04600
C734        C  0.51221844  0.08511657  0.61019314    -0.23000
C735        C  0.51684057  0.08103797  0.65724386     0.13300
C736        C  0.52939488  0.08036937  0.65539809    -0.12200
N737        N  0.54091338  0.09119968  0.51002706     0.65000
H738        H  0.51721796  0.09197701  0.52626506     0.12900
N739        N  0.50901002  0.07766886  0.70734183     0.61600
H740        H  0.53281713  0.07717543  0.69171193     0.09000
O741        O  0.56070223  0.04732672  0.57500760    -0.39800
O742        O  0.55229327  0.04551689  0.65731357    -0.39000
O743        O  0.55998625  0.11289380  0.62281511    -0.39000
O744        O  0.57587970  0.11748602  0.55975697    -0.36700
O745        O  0.50432987  0.06555682  0.72885689    -0.37600
O746        O  0.50828271  0.08731699  0.73336765    -0.33800
O747        O  0.54549110  0.08321190  0.49354934    -0.35200
O748        O  0.54165074  0.10076003  0.47853651    -0.39500
C749        C  0.46262727  0.89711554  0.42909206    -0.13200
C750        C  0.45973716  0.90345985  0.38472247     0.17200
C751        C  0.47009048  0.90999695  0.34318739     0.03500
C752        C  0.48330926  0.91069152  0.34846889    -0.11700
C753        C  0.48643969  0.90479369  0.39383094    -0.02700
C754        C  0.47576263  0.89765087  0.43390341     0.02800
C755        C  0.44679302  0.90488664  0.38645182     0.09600
N756        N  0.46734616  0.91601371  0.29568397     0.66000
H757        H  0.49124751  0.91596588  0.31664635     0.18900
N758        N  0.47825211  0.89139646  0.48089342     0.76400
H759        H  0.45482031  0.89221067  0.46163555     0.10400
C760        C  0.43296429  0.89303768  0.39403400     0.04100
C761        C  0.42142137  0.89528571  0.40275157    -0.04600
C762        C  0.42329234  0.90907491  0.40270034    -0.23000
C763        C  0.43712174  0.92085577  0.39421968     0.13300
C764        C  0.44862498  0.91862802  0.38609773    -0.12200
N765        N  0.43045236  0.87873412  0.39168680     0.65000
H766        H  0.41080984  0.88613548  0.40825736     0.12900
N767        N  0.43985494  0.93519388  0.39699827     0.61600
H768        H  0.45926883  0.92782433  0.38184342     0.09000
O769        O  0.47369703  0.87817563  0.48192712    -0.39800
O770        O  0.48313788  0.89864373  0.52392419    -0.39000
O771        O  0.47711842  0.92748738  0.27539763    -0.39000
O772        O  0.45547509  0.90937532  0.27156921    -0.36700
O773        O  0.43773094  0.93985853  0.44110301    -0.37600
O774        O  0.44638344  0.94376583  0.35849394    -0.33800
O775        O  0.42137253  0.86925222  0.42290183    -0.35200
O776        O  0.43633107  0.87523364  0.35516374    -0.39500
C777        C  0.57792204  0.97738196  0.48769039    -0.13200
C778        C  0.57217816  0.98630001  0.47943454     0.17200
C779        C  0.55894094  0.98078473  0.45211106     0.03500
C780        C  0.55172936  0.96654455  0.43483420    -0.11700
C781        C  0.55712326  0.95741824  0.44545088    -0.02700
C782        C  0.57049723  0.96305265  0.47170500     0.02800
C783        C  0.58023281  0.00137285  0.49849241     0.09600
N784        N  0.55238231  0.98928497  0.44346660     0.66000
H785        H  0.54145418  0.96242983  0.41493691     0.18900
N786        N  0.57664617  0.95437187  0.48306535     0.76400
H787        H  0.58824016  0.98155395  0.50733742     0.10400
C788        C  0.58515952  0.00497025  0.55290553     0.04100
C789        C  0.59239980  0.01932947  0.56902608    -0.04600
C790        C  0.59454617  0.03024750  0.53264060    -0.23000
C791        C  0.58998227  0.02661178  0.47789873     0.13300
C792        C  0.58307913  0.01234679  0.46140718    -0.12200
N793        N  0.58239459  0.99420149  0.59285966     0.65000
H794        H  0.59580439  0.02188863  0.61123497     0.12900
N795        N  0.59213318  0.03722713  0.43848092     0.61600
H796        H  0.57973950  0.00979235  0.41911043     0.09000
O797        O  0.57535735  0.94906452  0.53002587    -0.39800
O798        O  0.58493760  0.95362209  0.44881094    -0.39000
O799        O  0.54649749  0.98873932  0.39835244    -0.39000
O800        O  0.55119074  0.99622632  0.48243674    -0.36700
O801        O  0.60392444  0.04398542  0.41389360    -0.37600
O802        O  0.58173089  0.03852494  0.42319197    -0.33800
O803        O  0.59207900  0.99584331  0.62569137    -0.35200
O804        O  0.56994695  0.98373946  0.59899663    -0.39500
C805        C  0.54028251  0.88693475  0.17819867    -0.13200
C806        C  0.55355372  0.88766506  0.18133434     0.17200
C807        C  0.56251021  0.89448401  0.22656446     0.03500
C808        C  0.55793712  0.90027879  0.26761017    -0.11700
C809        C  0.54446075  0.89913957  0.26539392    -0.02700
C810        C  0.53565629  0.89262827  0.21943332     0.02800
C811        C  0.55823785  0.88210761  0.13516713     0.09600
N812        N  0.57599567  0.89512740  0.23241392     0.66000
H813        H  0.56473569  0.90512815  0.30296518     0.18900
N814        N  0.52229476  0.89219679  0.21292985     0.76400
H815        H  0.53358526  0.88218006  0.14250777     0.10400
C816        C  0.54981708  0.86798186  0.11602355     0.04100
C817        C  0.55426665  0.86355997  0.06991794    -0.04600
C818        C  0.56709080  0.87280711  0.04289933    -0.23000
C819        C  0.57543623  0.88694794  0.06224170     0.13300
C820        C  0.57093968  0.89140154  0.10785473    -0.12200
N821        N  0.53696570  0.85793363  0.14370587     0.65000
H822        H  0.54778781  0.85262567  0.05599237     0.12900
N823        N  0.58830009  0.89706660  0.03530789     0.61600
H824        H  0.57730948  0.90238942  0.12143036     0.09000
O825        O  0.51150733  0.88100452  0.19577605    -0.39800
O826        O  0.52174389  0.90350459  0.21698270    -0.39000
O827        O  0.58673228  0.90637792  0.24947729    -0.39000
O828        O  0.57692719  0.88410861  0.22519136    -0.36700
O829        O  0.58765670  0.90239251  0.99031885    -0.37600
O830        O  0.60007283  0.90220384  0.06002475    -0.33800
O831        O  0.52613003  0.84929182  0.11663329    -0.35200
O832        O  0.53676578  0.85685363  0.19507453    -0.39500
C833        C  0.54104344  0.85996920  0.70189043    -0.13200
C834        C  0.54838583  0.87382432  0.68059596     0.17200
C835        C  0.56125387  0.88406960  0.70498128     0.03500
C836        C  0.56650637  0.88031998  0.75022203    -0.11700
C837        C  0.55932332  0.86642672  0.77173273    -0.02700
C838        C  0.54627037  0.85618065  0.74752016     0.02800
C839        C  0.54215630  0.87789384  0.63519075     0.09600
N840        N  0.56926975  0.89823374  0.68330986     0.66000
H841        H  0.57656643  0.88835240  0.76779975     0.18900
N842        N  0.53803147  0.84206277  0.76919143     0.76400
H843        H  0.53095774  0.85214519  0.68376288     0.10400
C844        C  0.54084585  0.87238718  0.58196755     0.04100
C845        C  0.53593531  0.87758607  0.53974620    -0.04600
C846        C  0.53258857  0.88836019  0.54929284    -0.23000
C847        C  0.53303672  0.89310742  0.60348615     0.13300
C848        C  0.53793183  0.88792379  0.64548963    -0.12200
N849        N  0.54525728  0.86224240  0.56947093     0.65000
H850        H  0.53565945  0.87383267  0.49839207     0.12900
N851        N  0.52866595  0.90321826  0.61661912     0.61600
H852        H  0.53858177  0.89186899  0.68681713     0.09000
O853        O  0.53389719  0.83145662  0.73797855    -0.39800
O854        O  0.53267003  0.84026731  0.81631960    -0.39000
O855        O  0.57394446  0.90884827  0.71478814    -0.39000
O856        O  0.57262296  0.90014272  0.63338426    -0.36700
O857        O  0.51626926  0.90059993  0.60441120    -0.37600
O858        O  0.53639922  0.91376111  0.64673638    -0.33800
O859        O  0.53825034  0.85236577  0.53569640    -0.35200
O860        O  0.55692736  0.86397072  0.58752414    -0.39500
C861        C  0.68040464  0.90057456  0.86139281    -0.13200
C862        C  0.67163062  0.90450554  0.83358896     0.17200
C863        C  0.67761636  0.91535797  0.79364745     0.03500
C864        C  0.69223435  0.92180727  0.78174124    -0.11700
C865        C  0.70110087  0.91788101  0.80948064    -0.02700
C866        C  0.69499579  0.90711687  0.84986678     0.02800
C867        C  0.65611997  0.89655958  0.84496691     0.09600
N868        N  0.66906523  0.92001571  0.76535743     0.66000
H869        H  0.69673068  0.93011741  0.75097122     0.18900
N870        N  0.70338889  0.90259022  0.87937690     0.76400
H871        H  0.67582499  0.89219209  0.89190602     0.10400
C872        C  0.64617138  0.88762163  0.80537172     0.04100
C873        C  0.63155582  0.88069837  0.81757611    -0.04600
C874        C  0.62661460  0.88227099  0.86871759    -0.23000
C875        C  0.63664802  0.89143156  0.90783173     0.13300
C876        C  0.65125516  0.89828270  0.89581647    -0.12200
N877        N  0.65072239  0.88516020  0.75338854     0.65000
H878        H  0.62401425  0.87363268  0.78734695     0.12900
N879        N  0.63222172  0.89430688  0.95906090     0.61600
H880        H  0.65887989  0.90534773  0.92586381     0.09000
O881        O  0.70227680  0.89070330  0.86867919    -0.39800
O882        O  0.71018570  0.90938227  0.92122566    -0.39000
O883        O  0.66001412  0.92185123  0.79100705    -0.39000
O884        O  0.67143576  0.92355398  0.71567737    -0.36700
O885        O  0.63732159  0.89270361  0.00303549    -0.37600
O886        O  0.62494724  0.90044020  0.95997722    -0.33800
O887        O  0.66123243  0.88319726  0.75036145    -0.35200
O888        O  0.64339203  0.88351601  0.71111073    -0.39500
C889        C  0.78825064  0.01119880  0.03210311    -0.13200
C890        C  0.78366617  0.99692768  0.04460142     0.17200
C891        C  0.78574492  0.99336069  0.09793640     0.03500
C892        C  0.79173848  0.00404564  0.13800056    -0.11700
C893        C  0.79544595  0.01819699  0.12638230    -0.02700
C894        C  0.79415962  0.02185177  0.07203964     0.02800
C895        C  0.77678309  0.98606711  0.00091091     0.09600
N896        N  0.78106896  0.97888348  0.11288898     0.66000
H897        H  0.79261818  0.00103403  0.17950238     0.18900
N898        N  0.79882511  0.03628330  0.05657919     0.76400
H899        H  0.78717774  0.01408495  0.99059291     0.10400
C900        C  0.76475160  0.98456781  0.97266790     0.04100
C901        C  0.75940529  0.97537336  0.92778945    -0.04600
C902        C  0.76554540  0.96729413  0.91072479    -0.23000
C903        C  0.77736021  0.96853349  0.94007912     0.13300
C904        C  0.78286848  0.97790323  0.98455945    -0.12200
N905        N  0.75773162  0.99215926  0.98959920     0.65000
H906        H  0.75018479  0.97442309  0.90648484     0.12900
N907        N  0.78401929  0.96053643  0.92496667     0.61600
H908        H  0.79219426  0.97906199  0.00575844     0.09000
O909        O  0.79104040  0.03903697  0.02662836    -0.39800
O910        O  0.81144990  0.04597460  0.06654064    -0.39000
O911        O  0.78887578  0.97605519  0.14236393    -0.39000
O912        O  0.76859596  0.96909889  0.10138623    -0.36700
O913        O  0.79362669  0.96531386  0.88885902    -0.37600
O914        O  0.78181386  0.94985924  0.95298960    -0.33800
O915        O  0.75359186  0.99780669  0.95447726    -0.35200
O916        O  0.75461723  0.99225367  0.03921826    -0.39500
C917        C  0.79000832  0.00085463  0.46488248    -0.13200
C918        C  0.77813841  0.99873115  0.49527265     0.17200
C919        C  0.77127022  0.00647344  0.48144663     0.03500
C920        C  0.77606556  0.01560321  0.43595017    -0.11700
C921        C  0.78783191  0.01758416  0.40491944    -0.02700
C922        C  0.79486972  0.01010575  0.42001830     0.02800
C923        C  0.77287171  0.98801797  0.53999655     0.09600
N924        N  0.75966959  0.00542405  0.51359691     0.66000
H925        H  0.77075406  0.02149999  0.42557510     0.18900
N926        N  0.80665511  0.01136703  0.38921350     0.76400
H927        H  0.79530932  0.99493548  0.47516155     0.10400
C928        C  0.75882723  0.97619257  0.54042077     0.04100
C929        C  0.75411985  0.96704629  0.58586381    -0.04600
C930        C  0.76318384  0.96911374  0.63026079    -0.23000
C931        C  0.77732560  0.98075766  0.62878378     0.13300
C932        C  0.78200611  0.98997853  0.58377848    -0.12200
N933        N  0.74935111  0.97316222  0.49485649     0.65000
H934        H  0.74334178  0.95800950  0.58584211     0.12900
N935        N  0.78697047  0.98367806  0.67322126     0.61600
H936        H  0.79277864  0.99904087  0.58375824     0.09000
O937        O  0.80448721  0.00512070  0.34379392    -0.39800
O938        O  0.81888796  0.01703399  0.41056592    -0.39000
O939        O  0.75990414  0.00471293  0.56501386    -0.39000
O940        O  0.74987064  0.00667007  0.49115671    -0.36700
O941        O  0.79840288  0.98353174  0.66551882    -0.37600
O942        O  0.78516736  0.98853005  0.71745861    -0.33800
O943        O  0.75398091  0.97476420  0.44653971    -0.35200
O944        O  0.73609108  0.96753299  0.50264195    -0.39500
C945        C  0.68562685  0.11908728  0.32817932    -0.13200
C946        C  0.67184952  0.10726172  0.32398615     0.17200
C947        C  0.66714968  0.10011797  0.27361213     0.03500
C948        C  0.67635124  0.10488577  0.22855072    -0.11700
C949        C  0.69027699  0.11658865  0.23267763    -0.02700
C950        C  0.69482886  0.12386560  0.28311545     0.02800
C951        C  0.66231285  0.10278156  0.37210716     0.09600
N952        N  0.65326761  0.08773151  0.26814771     0.66000
H953        H  0.67267689  0.09911563  0.19035453     0.18900
N954        N  0.70878193  0.13597553  0.28964526     0.76400
H955        H  0.68921155  0.12472663  0.36669512     0.10400
C956        C  0.66563932  0.09794497  0.42027908     0.04100
C957        C  0.65624786  0.09372393  0.46476244    -0.04600
C958        C  0.64345721  0.09404415  0.46203911    -0.23000
C959        C  0.64040911  0.09929976  0.41412444     0.13300
C960        C  0.64980097  0.10354084  0.36975166    -0.12200
N961        N  0.67816034  0.09667537  0.42377292     0.65000
H962        H  0.65875933  0.08968809  0.50103304     0.12900
N963        N  0.62769944  0.10010825  0.40921435     0.61600
H964        H  0.64730409  0.10744486  0.33304298     0.09000
O965        O  0.71770178  0.13515865  0.32026418    -0.39800
O966        O  0.71134918  0.14799569  0.27240717    -0.39000
O967        O  0.64557546  0.08645147  0.22744192    -0.39000
O968        O  0.64914897  0.07752799  0.30146612    -0.36700
O969        O  0.62725005  0.11055767  0.42952338    -0.37600
O970        O  0.61781495  0.09161379  0.37797893    -0.33800
O971        O  0.68589520  0.10092142  0.46590543    -0.35200
O972        O  0.68077319  0.09011383  0.38718147    -0.39500
C973        C  0.64560051  0.08544156  0.83062643    -0.13200
C974        C  0.65733664  0.09932669  0.82986653     0.17200
C975        C  0.65883247  0.10853962  0.78643065     0.03500
C976        C  0.64863825  0.10359046  0.74445176    -0.11700
C977        C  0.63709287  0.08951639  0.74404694    -0.02700
C978        C  0.63538279  0.08051711  0.78874751     0.02800
C979        C  0.66790142  0.10404059  0.87490534     0.09600
N980        N  0.67096076  0.12267493  0.78299206     0.66000
H981        H  0.65020357  0.11061361  0.71037399     0.18900
N982        N  0.62322364  0.06648429  0.79287047     0.76400
H983        H  0.64426445  0.07844532  0.86454633     0.10400
C984        C  0.66955408  0.11461772  0.91250880     0.04100
C985        C  0.68052038  0.11957078  0.95154222    -0.04600
C986        C  0.68973415  0.11397975  0.95479021    -0.23000
C987        C  0.68796232  0.10337154  0.91689627     0.13300
C988        C  0.67705873  0.09846530  0.87784223    -0.12200
N989        N  0.65994536  0.12009289  0.91256540     0.65000
H990        H  0.68151245  0.12751635  0.98078659     0.12900
N991        N  0.69734011  0.09769748  0.91650140     0.61600
H992        H  0.67596819  0.09049162  0.84850903     0.09000
O993        O  0.61086124  0.06485764  0.79518400    -0.39800
O994        O  0.62489613  0.05595288  0.80149515    -0.39000
O995        O  0.68338399  0.12473436  0.79023656    -0.39000
O996        O  0.66943151  0.13286369  0.76673092    -0.36700
O997        O  0.70982322  0.10509495  0.89785681    -0.37600
O998        O  0.69257515  0.08472359  0.92755727    -0.33800
O999        O  0.64664513  0.11166653  0.91043407    -0.35200
O1000       O  0.66461887  0.13319540  0.92047605    -0.39500
C1001       C  0.74761064  0.08502100  0.13191331    -0.13200
C1002       C  0.74962965  0.08428355  0.18822823     0.17200
C1003       C  0.74540088  0.09158771  0.22468700     0.03500
C1004       C  0.73963772  0.09966182  0.20383430    -0.11700
C1005       C  0.73758543  0.10039018  0.14747403    -0.02700
C1006       C  0.74151978  0.09279864  0.11138917     0.02800
C1007       C  0.75724116  0.07685663  0.20748289     0.09600
N1008       N  0.74665458  0.09073459  0.28281838     0.66000
H1009       H  0.73646645  0.10523228  0.23236885     0.18900
N1010       N  0.73963123  0.09303353  0.05374756     0.76400
H1011       H  0.75104419  0.07968143  0.10330299     0.10400
C1012       C  0.75312364  0.06283014  0.19081881     0.04100
C1013       C  0.76164037  0.05695866  0.20508361    -0.04600
C1014       C  0.77404473  0.06457995  0.23672303    -0.23000
C1015       C  0.77785237  0.07843410  0.25466096     0.13300
C1016       C  0.76952906  0.08440663  0.23961349    -0.12200
N1017       N  0.74028625  0.05437368  0.16008297     0.65000
H1018       H  0.75842120  0.04622663  0.19160318     0.12900
N1019       N  0.79037081  0.08681285  0.28666703     0.61600
H1020       H  0.77297102  0.09528361  0.25188769     0.09000
O1021       O  0.72894844  0.08280270  0.03106154    -0.39800
O1022       O  0.74954847  0.10238783  0.02479276    -0.39000
O1023       O  0.75010040  0.10150885  0.31240204    -0.39000
O1024       O  0.74312296  0.07894267  0.30525945    -0.36700
O1025       O  0.80242559  0.09318933  0.26375045    -0.37600
O1026       O  0.78916785  0.08976016  0.33551406    -0.33800
O1027       O  0.74000977  0.04624929  0.12263271    -0.35200
O1028       O  0.72888187  0.05407748  0.17322434    -0.39500
C1029       C  0.23122809  0.10048561  0.25389137    -0.13200
C1030       C  0.24314015  0.11382257  0.26581142     0.17200
C1031       C  0.25608341  0.11456402  0.28090201     0.03500
C1032       C  0.25672962  0.10200262  0.28434334    -0.11700
C1033       C  0.24491506  0.08865791  0.27140519    -0.02700
C1034       C  0.23197727  0.08796001  0.25636964     0.02800
C1035       C  0.24178351  0.12680794  0.26454109     0.09600
N1036       N  0.26880244  0.12800116  0.29066512     0.66000
H1037       H  0.26681957  0.10279516  0.29496568     0.18900
N1038       N  0.21944201  0.07464978  0.24440100     0.76400
H1039       H  0.22116837  0.09977343  0.24328026     0.10400
C1040       C  0.23708359  0.13080955  0.21749899     0.04100
C1041       C  0.23655125  0.14347209  0.21791365    -0.04600
C1042       C  0.24089317  0.15247557  0.26383221    -0.23000
C1043       C  0.24492900  0.14805318  0.31160413     0.13300
C1044       C  0.24530470  0.13534330  0.31145008    -0.12200
N1045       N  0.23356332  0.12259489  0.16815108     0.65000
H1046       H  0.23343483  0.14665824  0.18079223     0.12900
N1047       N  0.24893662  0.15642795  0.36035940     0.61600
H1048       H  0.24854703  0.13216598  0.34830752     0.09000
O1049       O  0.21329447  0.07282018  0.19890292    -0.39800
O1050       O  0.21345632  0.06549917  0.28169606    -0.39000
O1051       O  0.27731548  0.12913154  0.32808218    -0.39000
O1052       O  0.27231446  0.13833517  0.25848454    -0.36700
O1053       O  0.23952707  0.15696919  0.38889062    -0.37600
O1054       O  0.26147386  0.16172768  0.37856015    -0.33800
O1055       O  0.22278324  0.12035220  0.14066687    -0.35200
O1056       O  0.24197811  0.11883613  0.14897612    -0.39500
C1057       C  0.41822247  0.19230668  0.03298817    -0.13200
C1058       C  0.42288964  0.20112245  0.07912829     0.17200
C1059       C  0.42785027  0.19700655  0.12516542     0.03500
C1060       C  0.42789091  0.18409922  0.12375875    -0.11700
C1061       C  0.42267365  0.17496901  0.07832266    -0.02700
C1062       C  0.41809399  0.17937299  0.03205099     0.02800
C1063       C  0.42187706  0.21423326  0.07862041     0.09600
N1064       N  0.43222558  0.20538303  0.17432724     0.66000
H1065       H  0.43134854  0.18084037  0.15978963     0.18900
N1066       N  0.41300609  0.17074604  0.98410899     0.76400
H1067       H  0.41449439  0.19545690  0.99739559     0.10400
C1068       C  0.43387187  0.22796974  0.08630286     0.04100
C1069       C  0.43186853  0.23977394  0.08933548    -0.04600
C1070       C  0.41827599  0.23824058  0.08328106    -0.23000
C1071       C  0.40642456  0.22449773  0.07472241     0.13300
C1072       C  0.40833893  0.21272000  0.07242554    -0.12200
N1073       N  0.44806135  0.23013143  0.09036027     0.65000
H1074       H  0.44108049  0.25030403  0.09520290     0.12900
N1075       N  0.39227945  0.22220616  0.07038725     0.61600
H1076       H  0.39907184  0.20219188  0.06705073     0.09000
O1077       O  0.42177560  0.17121804  0.94910776    -0.39800
O1078       O  0.39985184  0.16420092  0.97324963    -0.39000
O1079       O  0.42510734  0.21076922  0.19270105    -0.39000
O1080       O  0.44228140  0.20610079  0.20272929    -0.36700
O1081       O  0.38644131  0.22016743  0.02414682    -0.37600
O1082       O  0.38499067  0.22033688  0.11298940    -0.33800
O1083       O  0.45182136  0.22304560  0.06090542    -0.35200
O1084       O  0.45727258  0.24001999  0.11982349    -0.39500
C1085       C  0.34925556  0.24139750  0.21108548    -0.13200
C1086       C  0.33924755  0.24115363  0.17435894     0.17200
C1087       C  0.34388094  0.24836785  0.12425300     0.03500
C1088       C  0.35840621  0.25555122  0.11114111    -0.11700
C1089       C  0.36854042  0.25569904  0.14740356    -0.02700
C1090       C  0.36383391  0.24872225  0.19848442     0.02800
C1091       C  0.32397116  0.23347566  0.18913466     0.09600
N1092       N  0.33385071  0.24801253  0.08552005     0.66000
H1093       H  0.36170708  0.26078603  0.07175944     0.18900
N1094       N  0.37365814  0.24905535  0.23823971     0.76400
H1095       H  0.34572085  0.23601293  0.25013810     0.10400
C1096       C  0.31611663  0.21848924  0.19149967     0.04100
C1097       C  0.30168216  0.21159938  0.20630502    -0.04600
C1098       C  0.29484994  0.21936408  0.21873918    -0.23000
C1099       C  0.30295827  0.23443952  0.21807384     0.13300
C1100       C  0.31734520  0.24130273  0.20262227    -0.12200
N1101       N  0.32253874  0.21014734  0.17741914     0.65000
H1102       H  0.29568181  0.20004889  0.20668119     0.12900
N1103       N  0.29679854  0.24295984  0.23250425     0.61600
H1104       H  0.32346769  0.25285460  0.20181462     0.09000
O1105       O  0.37321719  0.23764599  0.25214242    -0.39800
O1106       O  0.38121430  0.26028799  0.26526348    -0.39000
O1107       O  0.33321988  0.25910883  0.07609158    -0.39000
O1108       O  0.32605162  0.23677379  0.05891523    -0.36700
O1109       O  0.29403162  0.24386890  0.28191135    -0.37600
O1110       O  0.29658261  0.25149530  0.19804003    -0.33800
O1111       O  0.32053716  0.19980711  0.20718877    -0.35200
O1112       O  0.32924926  0.21235011  0.13301138    -0.39500
C1113       C  0.20098050  0.21387833  0.95775572    -0.13200
C1114       C  0.21550094  0.21827090  0.96153730     0.17200
C1115       C  0.22498037  0.22718047  0.92068760     0.03500
C1116       C  0.21975569  0.23178790  0.87765453    -0.11700
C1117       C  0.20521068  0.22754592  0.87382143    -0.02700
C1118       C  0.19574228  0.21836850  0.91440646     0.02800
C1119       C  0.22074502  0.21423730  0.01029838     0.09600
N1120       N  0.23989349  0.23163533  0.92237840     0.66000
H1121       H  0.22717478  0.23875429  0.84691770     0.18900
N1122       N  0.18083577  0.21365490  0.91284978     0.76400
H1123       H  0.19369639  0.20708084  0.98920189     0.10400
C1124       C  0.22945634  0.22451587  0.04928942     0.04100
C1125       C  0.23528340  0.22053781  0.09225569    -0.04600
C1126       C  0.23232950  0.20642378  0.09805770    -0.23000
C1127       C  0.22355413  0.19616576  0.05888630     0.13300
C1128       C  0.21773917  0.20014650  0.01584536    -0.12200
N1129       N  0.23218519  0.23889942  0.04650814     0.65000
H1130       H  0.24177814  0.22845169  0.12242429     0.12900
N1131       N  0.22097251  0.18186937  0.06066363     0.61600
H1132       H  0.21126468  0.19232208  0.98535194     0.09000
O1133       O  0.17530064  0.21727480  0.95029565    -0.39800
O1134       O  0.17290310  0.20431583  0.87868477    -0.39000
O1135       O  0.24384017  0.22276160  0.93306432    -0.39000
O1136       O  0.24910511  0.24413403  0.90836997    -0.36700
O1137       O  0.20839071  0.17149628  0.05726076    -0.37600
O1138       O  0.23130738  0.17963076  0.05776669    -0.33800
O1139       O  0.22215669  0.24129366  0.03652283    -0.35200
O1140       O  0.24427618  0.24916502  0.05943123    -0.39500
C1141       C  0.21783029  0.23700997  0.51231434    -0.13200
C1142       C  0.21370566  0.22256838  0.50805152     0.17200
C1143       C  0.20412440  0.21277922  0.54678232     0.03500
C1144       C  0.19889188  0.21769774  0.58883327    -0.11700
C1145       C  0.20328727  0.23222738  0.59407644    -0.02700
C1146       C  0.21261526  0.24189281  0.55439820     0.02800
C1147       C  0.21943792  0.21791989  0.46253488     0.09600
N1148       N  0.20009161  0.19798310  0.54537668     0.66000
H1149       H  0.19188940  0.21018050  0.61930050     0.18900
N1150       N  0.21662053  0.25661856  0.55542904     0.76400
H1151       H  0.22498983  0.24451422  0.48211563     0.10400
C1152       C  0.21051478  0.20851318  0.42150003     0.04100
C1153       C  0.21637523  0.20355272  0.38197091    -0.04600
C1154       C  0.23099973  0.20798373  0.38165458    -0.23000
C1155       C  0.23983734  0.21750119  0.42270720     0.13300
C1156       C  0.23401046  0.22240313  0.46227994    -0.12200
N1157       N  0.19563103  0.20417582  0.41867979     0.65000
H1158       H  0.20948337  0.19646858  0.35031676     0.12900
N1159       N  0.25473827  0.22225892  0.42519872     0.61600
H1160       H  0.24087491  0.22953418  0.49392981     0.09000
O1161       O  0.20739627  0.26018712  0.54602845    -0.39800
O1162       O  0.22959893  0.26609857  0.55904593    -0.39000
O1163       O  0.20934661  0.19440181  0.53684871    -0.39000
O1164       O  0.18759256  0.18853019  0.55839595    -0.36700
O1165       O  0.26373726  0.23501035  0.41352270    -0.37600
O1166       O  0.25888386  0.21439478  0.44665811    -0.33800
O1167       O  0.19158339  0.21306341  0.42732388    -0.35200
O1168       O  0.18665833  0.19183611  0.40225452    -0.39500
C1169       C  0.22545842  0.31618330  0.78335923    -0.13200
C1170       C  0.23241956  0.31928059  0.83406530     0.17200
C1171       C  0.23079389  0.30795366  0.86751965     0.03500
C1172       C  0.22225336  0.29386472  0.84953399    -0.11700
C1173       C  0.21555664  0.29077802  0.79821489    -0.02700
C1174       C  0.21706678  0.30212798  0.76511738     0.02800
C1175       C  0.24060127  0.33437111  0.85231896     0.09600
N1176       N  0.23812540  0.31059336  0.91875557     0.66000
H1177       H  0.22130455  0.28524639  0.87513991     0.18900
N1178       N  0.20969881  0.29957972  0.71410194     0.76400
H1179       H  0.22626826  0.32481246  0.75816604     0.10400
C1180       C  0.25123561  0.34504102  0.81896889     0.04100
C1181       C  0.25751723  0.35935613  0.83461898    -0.04600
C1182       C  0.25371062  0.36337450  0.88353015    -0.23000
C1183       C  0.24331879  0.35262384  0.91748030     0.13300
C1184       C  0.23688066  0.33831112  0.90153015    -0.12200
N1185       N  0.25589573  0.34149503  0.76956715     0.65000
H1186       H  0.26566221  0.36742118  0.80844048     0.12900
N1187       N  0.23878430  0.35604033  0.96718781     0.61600
H1188       H  0.22853502  0.33021728  0.92703215     0.09000
O1189       O  0.21634070  0.30643646  0.67205114    -0.39800
O1190       O  0.19626856  0.29206669  0.71273818    -0.39000
O1191       O  0.23182936  0.30295788  0.95979954    -0.39000
O1192       O  0.25124950  0.31968079  0.92189836    -0.36700
O1193       O  0.23034893  0.36085853  0.96557542    -0.37600
O1194       O  0.24141012  0.35222984  0.01232931    -0.33800
O1195       O  0.25839727  0.34908963  0.72740387    -0.35200
O1196       O  0.25859559  0.33145696  0.76910559    -0.39500
C1197       C  0.33350002  0.43440795  0.61785153    -0.13200
C1198       C  0.33480739  0.44504637  0.65365299     0.17200
C1199       C  0.34467866  0.45947334  0.64191622     0.03500
C1200       C  0.35301997  0.46287696  0.59429723    -0.11700
C1201       C  0.35191250  0.45217818  0.55881680    -0.02700
C1202       C  0.34176383  0.43779741  0.57043640     0.02800
C1203       C  0.32547744  0.44063165  0.70240156     0.09600
N1204       N  0.34672922  0.47067202  0.67865618     0.66000
H1205       H  0.36083221  0.47392312  0.58614800     0.18900
N1206       N  0.33938713  0.42652173  0.53386075     0.76400
H1207       H  0.32573323  0.42335474  0.62629689     0.10400
C1208       C  0.31437003  0.44373052  0.70821647     0.04100
C1209       C  0.30540576  0.43864104  0.75412267    -0.04600
C1210       C  0.30707882  0.43020691  0.79378785    -0.23000
C1211       C  0.31855377  0.42758261  0.78834425     0.13300
C1212       C  0.32755822  0.43277156  0.74293897    -0.12200
N1213       N  0.31166135  0.45142840  0.66683296     0.65000
H1214       H  0.29667039  0.44076161  0.75740211     0.12900
N1215       N  0.32115826  0.41951936  0.82809140     0.61600
H1216       H  0.33617357  0.43048416  0.73888430     0.09000
O1217       O  0.33462633  0.42615583  0.48649022    -0.39800
O1218       O  0.34009597  0.41594798  0.55123840    -0.39000
O1219       O  0.34718712  0.46912170  0.72957609    -0.39000
O1220       O  0.34954150  0.48266445  0.66014616    -0.36700
O1221       O  0.31593344  0.40629015  0.82147605    -0.37600
O1222       O  0.33051041  0.42590922  0.86434305    -0.33800
O1223       O  0.31028185  0.44751096  0.61759696    -0.35200
O1224       O  0.30914765  0.46118961  0.68009422    -0.39500
C1225       C  0.31206093  0.42073566  0.14745902    -0.13200
C1226       C  0.32079916  0.43547355  0.15371387     0.17200
C1227       C  0.31947080  0.44473304  0.11721332     0.03500
C1228       C  0.30962195  0.43915507  0.07440265    -0.11700
C1229       C  0.30097119  0.42434816  0.06709253    -0.02700
C1230       C  0.30210162  0.41510046  0.10494253     0.02800
C1231       C  0.33153655  0.44105651  0.19776029     0.09600
N1232       N  0.32846901  0.45981596  0.12200057     0.66000
H1233       H  0.30901486  0.44649746  0.04597563     0.18900
N1234       N  0.29325809  0.39998588  0.10091012     0.76400
H1235       H  0.31298391  0.41356458  0.17585395     0.10400
C1236       C  0.32935504  0.44673107  0.24614690     0.04100
C1237       C  0.34014118  0.45244935  0.28577015    -0.04600
C1238       C  0.35295994  0.45233362  0.27870958    -0.23000
C1239       C  0.35517140  0.44690038  0.22947525     0.13300
C1240       C  0.34440214  0.44121895  0.18986372    -0.12200
N1241       N  0.31611475  0.44631681  0.25638839     0.65000
H1242       H  0.33818288  0.45641155  0.32353429     0.12900
N1243       N  0.36836484  0.44736181  0.21844780     0.61600
H1244       H  0.34618561  0.43712888  0.15205314     0.09000
O1245       O  0.28118785  0.39384473  0.12372598    -0.39800
O1246       O  0.29830565  0.39264976  0.08176590    -0.39000
O1247       O  0.34036696  0.46599240  0.09791693    -0.39000
O1248       O  0.32386067  0.46711967  0.14491122    -0.36700
O1249       O  0.37978832  0.45921597  0.21554151    -0.37600
O1250       O  0.36835485  0.43616863  0.20445999    -0.33800
O1251       O  0.30441815  0.43491048  0.24935752    -0.35200
O1252       O  0.31609911  0.45683673  0.27825464    -0.39500
C1253       C  0.44636649  0.31533364  0.31007982    -0.13200
C1254       C  0.44142882  0.32490397  0.31748982     0.17200
C1255       C  0.43191325  0.32531538  0.27935170     0.03500
C1256       C  0.42728864  0.31592037  0.23502795    -0.11700
C1257       C  0.43205734  0.30615413  0.22752252    -0.02700
C1258       C  0.44176187  0.30595479  0.26563918     0.02800
C1259       C  0.44544190  0.33371237  0.36728918     0.09600
N1260       N  0.42680373  0.33513869  0.28538942     0.66000
H1261       H  0.41984370  0.31625481  0.20635082     0.18900
N1262       N  0.44686009  0.29616542  0.26048276     0.76400
H1263       H  0.45360179  0.31493937  0.33968160     0.10400
C1264       C  0.43537400  0.33090716  0.40896099     0.04100
C1265       C  0.43900452  0.34060672  0.45204799    -0.04600
C1266       C  0.45255238  0.35290433  0.45510450    -0.23000
C1267       C  0.46268578  0.35542092  0.41382335     0.13300
C1268       C  0.45906053  0.34577154  0.37060780    -0.12200
N1269       N  0.42152241  0.31826139  0.40822881     0.65000
H1270       H  0.43121545  0.33836659  0.48393740     0.12900
N1271       N  0.47647967  0.36796194  0.41386822     0.61600
H1272       H  0.46673311  0.34799478  0.33823121     0.09000
O1273       O  0.44225110  0.28559246  0.29218597    -0.39800
O1274       O  0.45723586  0.29907056  0.22928193    -0.39000
O1275       O  0.43546541  0.34820767  0.29327723    -0.39000
O1276       O  0.41375125  0.33097527  0.27852115    -0.36700
O1277       O  0.48746793  0.36691728  0.42011935    -0.37600
O1278       O  0.47779314  0.37977126  0.40013513    -0.33800
O1279       O  0.42018132  0.30643981  0.39449524    -0.35200
O1280       O  0.41080637  0.31858624  0.42655025    -0.39500
C1281       C  0.42236637  0.31054589  0.86396954    -0.13200
C1282       C  0.43701771  0.31920498  0.85485175     0.17200
C1283       C  0.44671875  0.31747186  0.88751798     0.03500
C1284       C  0.44163071  0.30750851  0.93018668    -0.11700
C1285       C  0.42693332  0.29920659  0.94117281    -0.02700
C1286       C  0.41721304  0.30039688  0.90596316     0.02800
C1287       C  0.44196945  0.33016422  0.81152203     0.09600
N1288       N  0.46176712  0.32628473  0.87961913     0.66000
H1289       H  0.44929045  0.30676437  0.95640165     0.18900
N1290       N  0.40211354  0.29134882  0.91186469     0.76400
H1291       H  0.41487285  0.31161364  0.83787051     0.10400
C1292       C  0.44771639  0.32866957  0.76197422     0.04100
C1293       C  0.45267737  0.33962960  0.72303143    -0.04600
C1294       C  0.45169776  0.35192032  0.73188442    -0.23000
C1295       C  0.44614318  0.35342338  0.78207178     0.13300
C1296       C  0.44122767  0.34249622  0.82099680    -0.12200
N1297       N  0.44802459  0.31589490  0.74973622     0.65000
H1298       H  0.45672331  0.33820780  0.68444143     0.12900
N1299       N  0.44583700  0.36612984  0.79492335     0.61600
H1300       H  0.43705373  0.34376049  0.85956718     0.09000
O1301       O  0.39655795  0.27806403  0.90557603    -0.39800
O1302       O  0.39417653  0.29672411  0.91521683    -0.39000
O1303       O  0.46784138  0.33940057  0.89069559    -0.39000
O1304       O  0.46919570  0.32072047  0.86740936    -0.36700
O1305       O  0.45735286  0.37790314  0.79758173    -0.37600
O1306       O  0.43439459  0.36532429  0.81098712    -0.33800
O1307       O  0.43697341  0.30386697  0.75626951    -0.35200
O1308       O  0.45875342  0.31663007  0.72637845    -0.39500
C1309       C  0.41826773  0.40682714  0.54789181    -0.13200
C1310       C  0.42226205  0.41413778  0.49789196     0.17200
C1311       C  0.43371423  0.41471090  0.46824398     0.03500
C1312       C  0.44111640  0.40833515  0.49003873    -0.11700
C1313       C  0.43724984  0.40110516  0.54039283    -0.02700
C1314       C  0.42560482  0.40035101  0.56944574     0.02800
C1315       C  0.41519389  0.42215695  0.47983915     0.09600
N1316       N  0.43776805  0.42145909  0.41561153     0.66000
H1317       H  0.44983375  0.40880653  0.46659443     0.18900
N1318       N  0.42133915  0.39349497  0.62155103     0.76400
H1319       H  0.40965477  0.40657154  0.57140588     0.10400
C1320       C  0.40025161  0.41547912  0.47329063     0.04100
C1321       C  0.39405425  0.42372729  0.45946239    -0.04600
C1322       C  0.40243574  0.43852222  0.45153757    -0.23000
C1323       C  0.41738228  0.44510524  0.45764312     0.13300
C1324       C  0.42356205  0.43693239  0.47206913    -0.12200
N1325       N  0.39127309  0.40037484  0.48008358     0.65000
H1326       H  0.38255668  0.41850351  0.45499711     0.12900
N1327       N  0.42647620  0.46004094  0.44857985     0.61600
H1328       H  0.43503945  0.44219961  0.47751256     0.09000
O1329       O  0.40859252  0.38375861  0.62904598    -0.39800
O1330       O  0.42949427  0.39882316  0.66217047    -0.39000
O1331       O  0.45074910  0.42834745  0.40197185    -0.39000
O1332       O  0.42836299  0.41946511  0.38076715    -0.36700
O1333       O  0.43256523  0.46823574  0.48846171    -0.37600
O1334       O  0.42989108  0.46472513  0.40049340    -0.33800
O1335       O  0.37966914  0.39543974  0.50595305    -0.35200
O1336       O  0.39440221  0.39189738  0.45707738    -0.39500
C1337       C  0.58834671  0.77647428  0.95411605    -0.13200
C1338       C  0.57524877  0.77508298  0.93861429     0.17200
C1339       C  0.56397246  0.76154568  0.92277412     0.03500
C1340       C  0.56615742  0.74983372  0.92233746    -0.11700
C1341       C  0.57925665  0.75121441  0.93819289    -0.02700
C1342       C  0.59049314  0.76478973  0.95389095     0.02800
C1343       C  0.57412314  0.78817576  0.93505029     0.09600
N1344       N  0.55021321  0.75945271  0.90821190     0.66000
H1345       H  0.55739256  0.73945983  0.91066617     0.18900
N1346       N  0.60436503  0.76709757  0.96703511     0.76400
H1347       H  0.59721035  0.78690416  0.96467954     0.10400
C1348       C  0.57786191  0.79770022  0.97949981     0.04100
C1349       C  0.57855942  0.81085834  0.97204889    -0.04600
C1350       C  0.57535486  0.81472043  0.92146540    -0.23000
C1351       C  0.57116139  0.80493008  0.87766695     0.13300
C1352       C  0.57066497  0.79188221  0.88478189    -0.12200
N1353       N  0.58090169  0.79413351  0.03237887     0.65000
H1354       H  0.58158803  0.81811607  0.00643509     0.12900
N1355       N  0.56774048  0.80818113  0.82523679     0.61600
H1356       H  0.56797632  0.78475048  0.85009382     0.09000
O1357       O  0.61015523  0.77290640  0.01172689    -0.39800
O1358       O  0.61169330  0.76547660  0.93071891    -0.39000
O1359       O  0.54308747  0.75092154  0.87040656    -0.39000
O1360       O  0.54459959  0.76512802  0.93610892    -0.36700
O1361       O  0.57749980  0.81473678  0.79049461    -0.37600
O1362       O  0.55486406  0.80267220  0.81089636    -0.33800
O1363       O  0.59084779  0.80353321  0.06108135    -0.35200
O1364       O  0.57303004  0.78186863  0.05219917    -0.39500
C1365       C  0.76609529  0.86339999  0.74500102    -0.13200
C1366       C  0.75359635  0.86373355  0.73309814     0.17200
C1367       C  0.74112321  0.85090149  0.71870932     0.03500
C1368       C  0.74134255  0.83810101  0.71868502    -0.11700
C1369       C  0.75356408  0.83762613  0.73428600    -0.02700
C1370       C  0.76622802  0.85054926  0.74597927     0.02800
C1371       C  0.75379667  0.87754094  0.73610911     0.09600
N1372       N  0.72795828  0.85051500  0.70701649     0.66000
H1373       H  0.73150978  0.82825836  0.70964339     0.18900
N1374       N  0.77930470  0.85085807  0.75831450     0.76400
H1375       H  0.77589149  0.87329323  0.75398517     0.10400
C1376       C  0.75876835  0.88625302  0.78316281     0.04100
C1377       C  0.75876952  0.89916143  0.78427337    -0.04600
C1378       C  0.75343707  0.90346523  0.74047168    -0.23000
C1379       C  0.74873685  0.89486793  0.69302724     0.13300
C1380       C  0.74909646  0.88214106  0.69125197    -0.12200
N1381       N  0.76314939  0.88184182  0.83114641     0.65000
H1382       H  0.76227754  0.90552796  0.82135554     0.12900
N1383       N  0.74349131  0.89880188  0.64648220     0.61600
H1384       H  0.74558993  0.87570930  0.65429939     0.09000
O1385       O  0.78686204  0.85814334  0.79804677    -0.39800
O1386       O  0.78422352  0.84542870  0.72550251    -0.39000
O1387       O  0.72019105  0.84299240  0.66811352    -0.39000
O1388       O  0.72329565  0.85635126  0.73902642    -0.36700
O1389       O  0.75178826  0.90978836  0.61938168    -0.37600
O1390       O  0.73119316  0.89033096  0.62818441    -0.33800
O1391       O  0.77379984  0.89081492  0.85825081    -0.35200
O1392       O  0.75551500  0.86941368  0.84993199    -0.39500
C1393       C  0.65492376  0.74289579  0.90969665    -0.13200
C1394       C  0.65881365  0.74856472  0.85678675     0.17200
C1395       C  0.64799541  0.74627711  0.81907538     0.03500
C1396       C  0.63365989  0.73857114  0.83531874    -0.11700
C1397       C  0.62977477  0.73337731  0.88890749    -0.02700
C1398       C  0.64060741  0.73543501  0.92620742     0.02800
C1399       C  0.67418059  0.75640535  0.84139014     0.09600
N1400       N  0.65134265  0.75213401  0.76488949     0.66000
H1401       H  0.62554801  0.73718385  0.80634355     0.18900
N1402       N  0.63734084  0.72990183  0.98069283     0.76400
H1403       H  0.66307021  0.74417360  0.93830302     0.10400
C1404       C  0.68450152  0.76768394  0.87364645     0.04100
C1405       C  0.69891186  0.77442996  0.85843007    -0.04600
C1406       C  0.70332156  0.77052363  0.81073775    -0.23000
C1407       C  0.69298535  0.75917939  0.77880486     0.13300
C1408       C  0.67862684  0.75219136  0.79464530    -0.12200
N1409       N  0.68053068  0.77277696  0.92079563     0.65000
H1410       H  0.70662970  0.78316381  0.88307827     0.12900
N1411       N  0.69681873  0.75451456  0.73038587     0.61600
H1412       H  0.67090509  0.74334800  0.77042676     0.09000
O1413       O  0.64337740  0.73806184  0.02073490    -0.39800
O1414       O  0.63024372  0.71660964  0.98836031    -0.39000
O1415       O  0.64390397  0.74488820  0.72486366    -0.39000
O1416       O  0.66080900  0.76498922  0.75751440    -0.36700
O1417       O  0.70343123  0.74774158  0.73409180    -0.37600
O1418       O  0.69190433  0.75539969  0.68477341    -0.33800
O1419       O  0.68813005  0.77625867  0.96330856    -0.35200
O1420       O  0.67027535  0.77514494  0.91831529    -0.39500
C1421       C  0.77208958  0.75590770  0.05398049    -0.13200
C1422       C  0.78221429  0.76890580  0.03064022     0.17200
C1423       C  0.79591198  0.77666355  0.05407965     0.03500
C1424       C  0.79918174  0.77125407  0.10043597    -0.11700
C1425       C  0.78909297  0.75816230  0.12366974    -0.02700
C1426       C  0.77538944  0.75046425  0.09989578     0.02800
C1427       C  0.77792368  0.77444784  0.98350311     0.09600
N1428       N  0.80665969  0.78985052  0.03066979     0.66000
H1429       H  0.80975750  0.77727142  0.11799669     0.18900
N1430       N  0.76473959  0.73702409  0.12132423     0.76400
H1431       H  0.76149157  0.74996490  0.03648823     0.10400
C1432       C  0.77307489  0.76660790  0.93464770     0.04100
C1433       C  0.76753921  0.77131718  0.89321645    -0.04600
C1434       C  0.76685225  0.78385328  0.89906182    -0.23000
C1435       C  0.77186509  0.79175647  0.94803717     0.13300
C1436       C  0.77743973  0.78704392  0.98943881    -0.12200
N1437       N  0.77388080  0.75395361  0.92634915     0.65000
H1438       H  0.76391802  0.76517865  0.85586947     0.12900
N1439       N  0.77073336  0.80414667  0.95770659     0.61600
H1440       H  0.78087076  0.79293519  0.02741225     0.09000
O1441       O  0.76416333  0.72570727  0.10520224    -0.39800
O1442       O  0.75493102  0.73632738  0.15123304    -0.39000
O1443       O  0.81450474  0.80026910  0.06111952    -0.39000
O1444       O  0.80912938  0.79075753  0.98000897    -0.36700
O1445       O  0.75863560  0.80280996  0.96613276    -0.37600
O1446       O  0.78181591  0.81593893  0.96727456    -0.33800
O1447       O  0.76327577  0.74283398  0.90774406    -0.35200
O1448       O  0.78549638  0.75415819  0.93393719    -0.39500
C1449       C  0.78110073  0.75890167  0.49525603    -0.13200
C1450       C  0.77996164  0.77098929  0.48505897     0.17200
C1451       C  0.78479149  0.77821697  0.43486569     0.03500
C1452       C  0.79048538  0.77304139  0.39564688    -0.11700
C1453       C  0.79125668  0.76065044  0.40498548    -0.02700
C1454       C  0.78682752  0.75374161  0.45624152     0.02800
C1455       C  0.77424973  0.77616302  0.52864219     0.09600
N1456       N  0.78339812  0.79038398  0.42227180     0.66000
H1457       H  0.79370559  0.77840691  0.35634864     0.18900
N1458       N  0.78838114  0.74174926  0.46994715     0.76400
H1459       H  0.77774307  0.75357682  0.53462943     0.10400
C1460       C  0.76007677  0.76779261  0.54692008     0.04100
C1461       C  0.75546271  0.77220797  0.59235169    -0.04600
C1462       C  0.76466541  0.78493354  0.61996970    -0.23000
C1463       C  0.77882058  0.79342273  0.60073598     0.13300
C1464       C  0.78341995  0.78899842  0.55521615    -0.12200
N1465       N  0.75025278  0.75487516  0.51935939     0.65000
H1466       H  0.74451098  0.76559724  0.60597159     0.12900
N1467       N  0.78877533  0.80633533  0.62761393     0.61600
H1468       H  0.79440600  0.79540161  0.54157405     0.09000
O1469       O  0.77822912  0.73095410  0.49253058    -0.39800
O1470       O  0.80052355  0.74284487  0.46766014    -0.39000
O1471       O  0.79317061  0.80080274  0.39655347    -0.39000
O1472       O  0.77186235  0.79017868  0.43201324    -0.36700
O1473       O  0.79514348  0.80580823  0.66990507    -0.37600
O1474       O  0.79294596  0.81814812  0.60426922    -0.33800
O1475       O  0.74232206  0.74374944  0.54643519    -0.35200
O1476       O  0.74869290  0.75483959  0.46826535    -0.39500
C1477       C  0.75351748  0.67270748  0.24817049    -0.13200
C1478       C  0.75688780  0.66734244  0.20190978     0.17200
C1479       C  0.76799991  0.67684911  0.16709623     0.03500
C1480       C  0.77566070  0.69138021  0.17990035    -0.11700
C1481       C  0.77271651  0.69673631  0.22735325    -0.02700
C1482       C  0.76125060  0.68724779  0.26117759     0.02800
C1483       C  0.74860966  0.65183108  0.19015014     0.09600
N1484       N  0.77202312  0.67187825  0.11978647     0.66000
H1485       H  0.78435683  0.69844460  0.15335276     0.18900
N1486       N  0.75720795  0.69212114  0.30852592     0.76400
H1487       H  0.74474293  0.66553904  0.27423748     0.10400
C1488       C  0.74745920  0.64165519  0.22883233     0.04100
C1489       C  0.73991842  0.62714831  0.21538486    -0.04600
C1490       C  0.73363353  0.62248576  0.16369817    -0.23000
C1491       C  0.73435637  0.63268131  0.12587695     0.13300
C1492       C  0.74179043  0.64717246  0.13943833    -0.12200
N1493       N  0.75433602  0.64587505  0.28105067     0.65000
H1494       H  0.73941931  0.61951919  0.24509067     0.12900
N1495       N  0.72772378  0.62857845  0.07342026     0.61600
H1496       H  0.74230230  0.65487223  0.11002203     0.09000
O1497       O  0.75179692  0.69997868  0.30297844    -0.39800
O1498       O  0.75671983  0.68664829  0.35453489    -0.39000
O1499       O  0.77459782  0.67859247  0.07524732    -0.39000
O1500       O  0.77428829  0.66158346  0.12359350    -0.36700
O1501       O  0.71442770  0.62343866  0.06916490    -0.37600
O1502       O  0.73531969  0.63198174  0.03090461    -0.33800
O1503       O  0.74769854  0.63942752  0.32373763    -0.35200
O1504       O  0.76739437  0.65517171  0.28419343    -0.39500
C1505       C  0.45868456  0.55803791  0.43361353    -0.13200
C1506       C  0.45712775  0.54619101  0.40451772     0.17200
C1507       C  0.46888932  0.54746957  0.37470403     0.03500
C1508       C  0.48195682  0.56030042  0.37641540    -0.11700
C1509       C  0.48378386  0.57182910  0.40855498    -0.02700
C1510       C  0.47183409  0.57074162  0.43627641     0.02800
C1511       C  0.44319055  0.53262008  0.40616891     0.09600
N1512       N  0.46803082  0.53566505  0.34498590     0.66000
H1513       H  0.49098613  0.56091317  0.35494265     0.18900
N1514       N  0.47283018  0.58234355  0.46757677     0.76400
H1515       H  0.44961376  0.55735646  0.45502922     0.10400
C1516       C  0.43638979  0.52641754  0.45625680     0.04100
C1517       C  0.42326824  0.51365075  0.45602426    -0.04600
C1518       C  0.41693109  0.50651075  0.40710553    -0.23000
C1519       C  0.42362749  0.51285882  0.35706037     0.13300
C1520       C  0.43652840  0.52585955  0.35709546    -0.12200
N1521       N  0.44296647  0.53250155  0.50775260     0.65000
H1522       H  0.41840612  0.50887708  0.49482470     0.12900
N1523       N  0.41758711  0.50623770  0.30585913     0.61600
H1524       H  0.44144224  0.53067449  0.31839523     0.09000
O1525       O  0.46911679  0.58051286  0.51712763    -0.39800
O1526       O  0.47562879  0.59381419  0.44408584    -0.39000
O1527       O  0.47357662  0.53760357  0.29814856    -0.39000
O1528       O  0.46315770  0.52365966  0.36768318    -0.36700
O1529       O  0.40645819  0.50589748  0.28857447    -0.37600
O1530       O  0.42425560  0.50224308  0.27511756    -0.33800
O1531       O  0.43553149  0.53285443  0.54673947    -0.35200
O1532       O  0.45581986  0.53607636  0.51630620    -0.39500
C1533       C  0.53604109  0.64732870  0.65107636    -0.13200
C1534       C  0.55073517  0.65635796  0.65869703     0.17200
C1535       C  0.56040515  0.65550185  0.62258937     0.03500
C1536       C  0.55519166  0.64553439  0.58010579    -0.11700
C1537       C  0.54046736  0.63640723  0.57219910    -0.02700
C1538       C  0.53081169  0.63731681  0.60862931     0.02800
C1539       C  0.55584907  0.66583407  0.70701452     0.09600
N1540       N  0.57551475  0.66483365  0.62804196     0.66000
H1541       H  0.56279314  0.64510051  0.55251420     0.18900
N1542       N  0.51573414  0.62796744  0.60424469     0.76400
H1543       H  0.52857482  0.64776430  0.67944446     0.10400
C1544       C  0.55229001  0.67653121  0.71558684     0.04100
C1545       C  0.55716209  0.68494911  0.76283998    -0.04600
C1546       C  0.56570128  0.68309572  0.80144927    -0.23000
C1547       C  0.56894153  0.67212897  0.79305947     0.13300
C1548       C  0.56405988  0.66371981  0.74602625    -0.12200
N1549       N  0.54424531  0.67933550  0.67592141     0.65000
H1550       H  0.55465958  0.69336941  0.76835208     0.12900
N1551       N  0.57707232  0.66928014  0.83182842     0.61600
H1552       H  0.56655708  0.65529762  0.74015622     0.09000
O1553       O  0.50766091  0.63309492  0.59758578    -0.39800
O1554       O  0.51036983  0.61501814  0.61722741    -0.39000
O1555       O  0.58389886  0.66002099  0.62279791    -0.39000
O1556       O  0.58058959  0.67806590  0.63407686    -0.36700
O1557       O  0.57166941  0.66387167  0.87751883    -0.37600
O1558       O  0.58859729  0.67002136  0.81734695    -0.33800
O1559       O  0.53519316  0.68267209  0.69128636    -0.35200
O1560       O  0.54712276  0.67985949  0.62571635    -0.39500
C1561       C  0.54084240  0.65491281  0.24333853    -0.13200
C1562       C  0.54994852  0.65425070  0.20423086     0.17200
C1563       C  0.55431526  0.64405557  0.21050733     0.03500
C1564       C  0.54983411  0.63511169  0.25644176    -0.11700
C1565       C  0.54077961  0.63580406  0.29584432    -0.02700
C1566       C  0.53622258  0.64584538  0.28881258     0.02800
C1567       C  0.55577716  0.66510198  0.15995202     0.09600
N1568       N  0.56304001  0.64246609  0.17016438     0.66000
H1569       H  0.55321504  0.62729781  0.26065642     0.18900
N1570       N  0.52741622  0.64743011  0.32844504     0.76400
H1571       H  0.53767347  0.66290062  0.23950141     0.10400
C1572       C  0.54685140  0.66748369  0.12475640     0.04100
C1573       C  0.55300493  0.67833609  0.08534202    -0.04600
C1574       C  0.56788849  0.68669485  0.07918517    -0.23000
C1575       C  0.57674798  0.68444531  0.11532832     0.13300
C1576       C  0.57062193  0.67374401  0.15504118    -0.12200
N1577       N  0.53160045  0.65863929  0.12692033     0.65000
H1578       H  0.54604219  0.67978327  0.05757482     0.12900
N1579       N  0.59196802  0.69299525  0.11284794     0.61600
H1580       H  0.57755625  0.67228428  0.18296470     0.09000
O1581       O  0.51549786  0.64582581  0.31442723    -0.39800
O1582       O  0.53244194  0.65254208  0.37484615    -0.39000
O1583       O  0.57264749  0.63982249  0.18462064    -0.39000
O1584       O  0.56036750  0.64245256  0.11998113    -0.36700
O1585       O  0.59800112  0.70610622  0.12400657    -0.37600
O1586       O  0.59941440  0.68713043  0.10721697    -0.33800
O1587       O  0.52376857  0.66403814  0.12000462    -0.35200
O1588       O  0.52590245  0.64527054  0.13042109    -0.39500
C1589       C  0.55142157  0.46173801  0.68130757    -0.13200
C1590       C  0.54579079  0.45493182  0.63130229     0.17200
C1591       C  0.55339269  0.46111997  0.58248477     0.03500
C1592       C  0.56648445  0.47389203  0.58519135    -0.11700
C1593       C  0.57190012  0.48097463  0.63502974    -0.02700
C1594       C  0.56438707  0.47461222  0.68369917     0.02800
C1595       C  0.53179024  0.44158130  0.63104120     0.09600
N1596       N  0.54767463  0.45505538  0.52985594     0.66000
H1597       H  0.57202408  0.47879607  0.54741510     0.18900
N1598       N  0.56981685  0.48099784  0.73582357     0.76400
H1599       H  0.54569458  0.45695130  0.71891218     0.10400
C1600       C  0.52994850  0.42878128  0.60837205     0.04100
C1601       C  0.51610991  0.41705283  0.60302942    -0.04600
C1602       C  0.50412210  0.41766290  0.62105823    -0.23000
C1603       C  0.50613747  0.43034054  0.64542610     0.13300
C1604       C  0.51988650  0.44207987  0.65038889    -0.12200
N1605       N  0.54193095  0.42752314  0.59078490     0.65000
H1606       H  0.51472348  0.40728348  0.58523977     0.12900
N1607       N  0.49432283  0.43177601  0.66265990     0.61600
H1608       H  0.52122794  0.45191293  0.66740886     0.09000
O1609       O  0.58126533  0.48211129  0.75350768    -0.39800
O1610       O  0.56242006  0.48405912  0.76668307    -0.39000
O1611       O  0.53468457  0.45042720  0.51920751    -0.39000
O1612       O  0.55592729  0.45590018  0.49181218    -0.36700
O1613       O  0.49248708  0.43302914  0.71278440    -0.37600
O1614       O  0.48707554  0.43394119  0.62767278    -0.33800
O1615       O  0.55341681  0.43334887  0.61766121    -0.35200
O1616       O  0.54068351  0.41958736  0.55098011    -0.39500
C1617       C  0.65732141  0.55479132  0.43882514    -0.13200
C1618       C  0.65447720  0.54489829  0.39703621     0.17200
C1619       C  0.64331579  0.53069707  0.40360261     0.03500
C1620       C  0.63514091  0.52678820  0.45157213    -0.11700
C1621       C  0.63765593  0.53681780  0.49269112    -0.02700
C1622       C  0.64912956  0.55093024  0.48655397     0.02800
C1623       C  0.66379805  0.54957167  0.34819173     0.09600
N1624       N  0.63977749  0.52033209  0.36114728     0.66000
H1625       H  0.62628928  0.51595032  0.45549862     0.18900
N1626       N  0.65286243  0.56136306  0.52876853     0.76400
H1627       H  0.66620690  0.56561278  0.43464421     0.10400
C1628       C  0.66570845  0.56128095  0.31658264     0.04100
C1629       C  0.67575927  0.56632916  0.27428611    -0.04600
C1630       C  0.68382501  0.55982181  0.26192110    -0.23000
C1631       C  0.68173493  0.54799125  0.29334972     0.13300
C1632       C  0.67176284  0.54299301  0.33591796    -0.12200
N1633       N  0.65737404  0.56798183  0.32637297     0.65000
H1634       H  0.67706062  0.57530227  0.25016555     0.12900
N1635       N  0.68992237  0.54119969  0.28383945     0.61600
H1636       H  0.67053170  0.53414660  0.36075354     0.09000
O1637       O  0.65516497  0.57366968  0.51707379    -0.39800
O1638       O  0.65587174  0.55898476  0.57596762    -0.39000
O1639       O  0.63647041  0.50772118  0.37301561    -0.39000
O1640       O  0.63866738  0.52337593  0.31230493    -0.36700
O1641       O  0.70263732  0.54699178  0.30052371    -0.37600
O1642       O  0.68388190  0.52858262  0.26613355    -0.33800
O1643       O  0.66308309  0.58135724  0.32329726    -0.35200
O1644       O  0.64407587  0.56051528  0.33371962    -0.39500
C1645       C  0.67212102  0.56349184  0.90982040    -0.13200
C1646       C  0.66160175  0.54903750  0.91026615     0.17200
C1647       C  0.66212029  0.53998318  0.95059610     0.03500
C1648       C  0.67320333  0.54562725  0.98910740    -0.11700
C1649       C  0.68362096  0.56017314  0.98931956    -0.02700
C1650       C  0.68300727  0.56913662  0.94878426     0.02800
C1651       C  0.65077041  0.54352406  0.86606899     0.09600
N1652       N  0.65126782  0.52521828  0.95410356     0.66000
H1653       H  0.67336543  0.53861191  0.02047569     0.18900
N1654       N  0.69333706  0.58398995  0.94641336     0.76400
H1655       H  0.67196875  0.57048756  0.87829460     0.10400
C1656       C  0.64208928  0.54953269  0.85536778     0.04100
C1657       C  0.63297323  0.54485786  0.80998993    -0.04600
C1658       C  0.63212177  0.53415799  0.77524679    -0.23000
C1659       C  0.64055034  0.52790947  0.78708750     0.13300
C1660       C  0.64987444  0.53278031  0.83169934    -0.12200
N1661       N  0.64241851  0.56035373  0.89007614     0.65000
H1662       H  0.62654088  0.54974858  0.80163658     0.12900
N1663       N  0.63975760  0.51659344  0.75450113     0.61600
H1664       H  0.65658284  0.52815801  0.83947863     0.09000
O1665       O  0.68988551  0.59305483  0.96017725    -0.39800
O1666       O  0.70522618  0.58807203  0.92373566    -0.39000
O1667       O  0.65451477  0.51598435  0.96769050    -0.39000
O1668       O  0.63827970  0.52153926  0.94896480    -0.36700
O1669       O  0.65083531  0.51801641  0.73165951    -0.37600
O1670       O  0.62852033  0.50455099  0.75474109    -0.33800
O1671       O  0.64210332  0.57086066  0.86953220    -0.35200
O1672       O  0.64199208  0.55894456  0.94133155    -0.39500
C1673       C  0.58365082  0.56940185  0.56874656    -0.13200
C1674       C  0.56975745  0.56151713  0.54808243     0.17200
C1675       C  0.56329828  0.54658691  0.54342761     0.03500
C1676       C  0.57099682  0.53990920  0.55857264    -0.11700
C1677       C  0.58495644  0.54775844  0.57922367    -0.02700
C1678       C  0.59136906  0.56274216  0.58384128     0.02800
C1679       C  0.56254107  0.56915970  0.52801249     0.09600
N1680       N  0.54885953  0.53806982  0.52466754     0.66000
H1681       H  0.56586040  0.52840223  0.55541050     0.18900
N1682       N  0.60589456  0.57143810  0.60093432     0.76400
H1683       H  0.58874533  0.58092295  0.57115976     0.10400
C1684       C  0.55845604  0.57654431  0.56410449     0.04100
C1685       C  0.55151199  0.58353441  0.54404257    -0.04600
C1686       C  0.54863357  0.58344524  0.48800049    -0.23000
C1687       C  0.55296725  0.57621284  0.45171681     0.13300
C1688       C  0.55983390  0.56913898  0.47199910    -0.12200
N1689       N  0.56103355  0.57675176  0.62139755     0.65000
H1690       H  0.54838954  0.58911466  0.57264178     0.12900
N1691       N  0.55016848  0.57563942  0.39447747     0.61600
H1692       H  0.56302184  0.56351531  0.44386476     0.09000
O1693       O  0.60903081  0.58086417  0.63697926    -0.39800
O1694       O  0.61576350  0.57135722  0.57386334    -0.39000
O1695       O  0.54545436  0.52750652  0.49392640    -0.39000
O1696       O  0.53921689  0.54023752  0.54284956    -0.36700
O1697       O  0.56026810  0.58273106  0.36159649    -0.37600
O1698       O  0.53795823  0.56685099  0.37632898    -0.33800
O1699       O  0.57104359  0.58778075  0.64320540    -0.35200
O1700       O  0.55255597  0.56640011  0.65093249    -0.39500
C1701       C  0.01087840  0.58396649  0.46653353    -0.13200
C1702       C  0.00821721  0.57801367  0.51901286     0.17200
C1703       C  0.01947667  0.57836272  0.54910118     0.03500
C1704       C  0.03313866  0.58467147  0.52602679    -0.11700
C1705       C  0.03590153  0.59075543  0.47353594    -0.02700
C1706       C  0.02450880  0.59020623  0.44338696     0.02800
C1707       C  0.99335555  0.57034505  0.53941335     0.09600
N1708       N  0.01725419  0.57261014  0.60335038     0.66000
H1709       H  0.04174540  0.58503596  0.54998934     0.18900
N1710       N  0.02649100  0.59571479  0.38904624     0.76400
H1711       H  0.00216099  0.58340186  0.44263194     0.10400
C1712       C  0.98529914  0.57719897  0.54494719     0.04100
C1713       C  0.97083098  0.56918454  0.55902832    -0.04600
C1714       C  0.96420757  0.55442746  0.56829063    -0.23000
C1715       C  0.97245916  0.54769730  0.56366224     0.13300
C1716       C  0.98684698  0.55567886  0.54912096    -0.12200
N1717       N  0.99168322  0.59225285  0.53646290     0.65000
H1718       H  0.96471166  0.57457618  0.56246367     0.12900
N1719       N  0.96635087  0.53271393  0.57193666     0.61600
H1720       H  0.99294951  0.55029806  0.54418991     0.09000
O1721       O  0.02498584  0.60629743  0.37924230    -0.39800
O1722       O  0.02725226  0.58858399  0.34983506    -0.39000
O1723       O  0.02293984  0.56544887  0.61793104    -0.39000
O1724       O  0.01053605  0.57557841  0.63808210    -0.36700
O1725       O  0.96416793  0.52467704  0.53148252    -0.37600
O1726       O  0.96534554  0.52790041  0.61964720    -0.33800
O1727       O  0.98545578  0.59708866  0.50743582    -0.35200
O1728       O  0.00312445  0.60079929  0.56059365    -0.39500
C1729       C  0.11667916  0.86044023  0.70766499    -0.13200
C1730       C  0.11557302  0.87249950  0.71888730     0.17200
C1731       C  0.10194105  0.87091735  0.72738501     0.03500
C1732       C  0.08982991  0.85717850  0.72649630    -0.11700
C1733       C  0.09095936  0.84502871  0.71617937    -0.02700
C1734       C  0.10461885  0.84683519  0.70616954     0.02800
C1735       C  0.12899025  0.88637598  0.72466119     0.09600
N1736       N  0.10021313  0.88304325  0.73692942     0.66000
H1737       H  0.07943006  0.85599736  0.73371000     0.18900
N1738       N  0.10655688  0.83494933  0.69616418     0.76400
H1739       H  0.12709682  0.86156375  0.70135974     0.10400
C1740       C  0.13298550  0.89395750  0.77456837     0.04100
C1741       C  0.14624030  0.90657487  0.77836748    -0.04600
C1742       C  0.15581795  0.91161261  0.73414966    -0.23000
C1743       C  0.15149752  0.90426480  0.68384673     0.13300
C1744       C  0.13825338  0.89173181  0.67978989    -0.12200
N1745       N  0.12413738  0.88867266  0.82241331     0.65000
H1746       H  0.14940422  0.91202763  0.81732054     0.12900
N1747       N  0.16044088  0.90928383  0.63656851     0.61600
H1748       H  0.13517844  0.88605964  0.64123491     0.09000
O1749       O  0.11086006  0.83018097  0.73412231    -0.39800
O1750       O  0.10606745  0.83066293  0.64790149    -0.39000
O1751       O  0.10786880  0.89460653  0.71185001    -0.39000
O1752       O  0.09025241  0.88189651  0.76715072    -0.36700
O1753       O  0.16509011  0.90180106  0.61548331    -0.37600
O1754       O  0.16226311  0.92031700  0.61214050    -0.33800
O1755       O  0.11825767  0.87565456  0.83507346    -0.35200
O1756       O  0.12351522  0.89726315  0.85548492    -0.39500
C1757       C  0.19177763  0.77354388  0.97677576    -0.13200
C1758       C  0.19956388  0.77984839  0.92899473     0.17200
C1759       C  0.19419405  0.77292185  0.87838045     0.03500
C1760       C  0.18127040  0.75994321  0.87703492    -0.11700
C1761       C  0.17324530  0.75384963  0.92459360    -0.02700
C1762       C  0.17872655  0.76070569  0.97528444     0.02800
C1763       C  0.21354785  0.79330701  0.93304909     0.09600
N1764       N  0.20137673  0.77922245  0.82793755     0.66000
H1765       H  0.17706936  0.75489762  0.83751371     0.18900
N1766       N  0.17138921  0.75465097  0.02558648     0.76400
H1767       H  0.19604766  0.77861728  0.01623596     0.10400
C1768       C  0.21494573  0.80549232  0.95981798     0.04100
C1769       C  0.22845194  0.81775661  0.96393661    -0.04600
C1770       C  0.24061552  0.81842863  0.94055116    -0.23000
C1771       C  0.23920477  0.80612407  0.91473136     0.13300
C1772       C  0.22576632  0.79377577  0.91149722    -0.12200
N1773       N  0.20272081  0.80582321  0.98060231     0.65000
H1774       H  0.22929180  0.82721405  0.98328104     0.12900
N1775       N  0.25128659  0.80590361  0.89229296     0.61600
H1776       H  0.22486111  0.78428311  0.89211962     0.09000
O1777       O  0.16966636  0.76235083  0.05981840    -0.39800
O1778       O  0.16838393  0.74222090  0.03906753    -0.39000
O1779       O  0.20183191  0.77148027  0.79044791    -0.39000
O1780       O  0.20593704  0.79224399  0.81845062    -0.36700
O1781       O  0.26143841  0.80781596  0.92304069    -0.37600
O1782       O  0.25093651  0.80186685  0.84369708    -0.33800
O1783       O  0.20358249  0.81217730  0.02483981    -0.35200
O1784       O  0.19154417  0.80112661  0.95215879    -0.39500
C1785       C  0.09598126  0.66692584  0.09214342    -0.13200
C1786       C  0.10443675  0.67066886  0.13939967     0.17200
C1787       C  0.11768224  0.68355745  0.14007331     0.03500
C1788       C  0.12239396  0.69199877  0.09282419    -0.11700
C1789       C  0.11399224  0.68821325  0.04542308    -0.02700
C1790       C  0.10055481  0.67556086  0.04542403     0.02800
C1791       C  0.09990603  0.66035635  0.18549272     0.09600
N1792       N  0.12627925  0.68837614  0.18862797     0.66000
H1793       H  0.13254491  0.70188106  0.09373563     0.18900
N1794       N  0.09172491  0.67095276  0.99770478     0.76400
H1795       H  0.08594697  0.65692234  0.09082919     0.10400
C1796       C  0.08622415  0.65439041  0.20947657     0.04100
C1797       C  0.08230325  0.64408810  0.25073061    -0.04600
C1798       C  0.09182609  0.63981986  0.26981025    -0.23000
C1799       C  0.10543348  0.64573290  0.24523146     0.13300
C1800       C  0.10926644  0.65581973  0.20349449    -0.12200
N1801       N  0.07642432  0.65903183  0.19400116     0.65000
H1802       H  0.07189350  0.63982222  0.26960581     0.12900
N1803       N  0.11546615  0.64154638  0.26157724     0.61600
H1804       H  0.11964204  0.66002950  0.18432777     0.09000
O1805       O  0.07877183  0.66752567  0.00111641    -0.39800
O1806       O  0.09628279  0.66841538  0.95417243    -0.39000
O1807       O  0.13971382  0.69505355  0.18511809    -0.39000
O1808       O  0.12053601  0.68721425  0.23464634    -0.36700
O1809       O  0.11302053  0.62912968  0.25119586    -0.37600
O1810       O  0.12758120  0.65077065  0.27916254    -0.33800
O1811       O  0.06323296  0.65017102  0.19113143    -0.35200
O1812       O  0.08071962  0.67213574  0.18828338    -0.39500
C1813       C  0.12455575  0.67093460  0.71796586    -0.13200
C1814       C  0.12380220  0.67642239  0.66702112     0.17200
C1815       C  0.12675918  0.69061367  0.66332237     0.03500
C1816       C  0.12932122  0.69863527  0.71110487    -0.11700
C1817       C  0.12914794  0.69287996  0.76276369    -0.02700
C1818       C  0.12713000  0.67896232  0.76577937     0.02800
C1819       C  0.11733930  0.66647809  0.62050199     0.09600
N1820       N  0.12685569  0.69685009  0.61145955     0.66000
H1821       H  0.13122902  0.70942251  0.70776016     0.18900
N1822       N  0.12663133  0.67241245  0.81705346     0.76400
H1823       H  0.12211231  0.65995674  0.72113449     0.10400
C1824       C  0.12323888  0.65847437  0.59958201     0.04100
C1825       C  0.11576514  0.64806032  0.55965144    -0.04600
C1826       C  0.10250626  0.64552078  0.53978432    -0.23000
C1827       C  0.09672514  0.65367487  0.56090800     0.13300
C1828       C  0.10418915  0.66403444  0.60056850    -0.12200
N1829       N  0.13687280  0.66099520  0.61778630     0.65000
H1830       H  0.12046120  0.64201895  0.54368765     0.12900
N1831       N  0.08308443  0.65130595  0.54399831     0.61600
H1832       H  0.09941899  0.66993254  0.61738582     0.09000
O1833       O  0.13591076  0.66902031  0.82797971    -0.39800
O1834       O  0.11560634  0.66767127  0.84644497    -0.39000
O1835       O  0.12185195  0.70508991  0.60709943    -0.39000
O1836       O  0.13271648  0.69483129  0.57057655    -0.36700
O1837       O  0.07191793  0.64138543  0.56553551    -0.37600
O1838       O  0.08229177  0.66042107  0.51453219    -0.33800
O1839       O  0.13854371  0.65066363  0.63058588    -0.35200
O1840       O  0.14752578  0.67345182  0.61711590    -0.39500
C1841       C  0.08772830  0.73954612  0.80993230    -0.13200
C1842       C  0.09102691  0.75231793  0.83608768     0.17200
C1843       C  0.10037472  0.75690922  0.88129143     0.03500
C1844       C  0.10646097  0.74880114  0.89829912    -0.11700
C1845       C  0.10360528  0.73626204  0.87086147    -0.02700
C1846       C  0.09379027  0.73144399  0.82690886     0.02800
C1847       C  0.08411267  0.76035641  0.81688920     0.09600
N1848       N  0.10424649  0.77003689  0.90881138     0.66000
H1849       H  0.11399844  0.75271325  0.93203232     0.18900
N1850       N  0.08987285  0.71841672  0.79887595     0.76400
H1851       H  0.08021393  0.73574466  0.77607443     0.10400
C1852       C  0.08553722  0.76517271  0.76241635     0.04100
C1853       C  0.07824659  0.77212887  0.74544978    -0.04600
C1854       C  0.06973572  0.77466563  0.78182693    -0.23000
C1855       C  0.06811045  0.76952844  0.83615301     0.13300
C1856       C  0.07536876  0.76254691  0.85294230    -0.12200
N1857       N  0.09474502  0.76356039  0.72456617     0.65000
H1858       H  0.07974521  0.77611291  0.70381211     0.12900
N1859       N  0.05896418  0.77102441  0.87455076     0.61600
H1860       H  0.07393433  0.75850060  0.89450424     0.09000
O1861       O  0.09170386  0.71852789  0.74793783    -0.39800
O1862       O  0.08252133  0.70666781  0.82316268    -0.39000
O1863       O  0.10509364  0.77068950  0.96024609    -0.39000
O1864       O  0.10809154  0.78129895  0.88177211    -0.36700
O1865       O  0.04580552  0.76541711  0.86459583    -0.37600
O1866       O  0.06349275  0.77575511  0.92184377    -0.33800
O1867       O  0.09087487  0.76006870  0.67568739    -0.35200
O1868       O  0.10723035  0.76681787  0.73850940    -0.39500
C1869       C  0.89103497  0.75287248  0.20761056     0.01200
C1870       C  0.88568178  0.75199139  0.26052011     0.17200
C1871       C  0.89297904  0.75041632  0.30529906     0.03500
C1872       C  0.90516828  0.74931906  0.29596464    -0.11700
C1873       C  0.91044728  0.74997148  0.24290725    -0.02700
C1874       C  0.90326959  0.75190232  0.19840512     0.02800
C1875       C  0.87170097  0.75125919  0.26735440     0.09600
N1876       N  0.88823080  0.75006135  0.36033772     0.66000
H1877       H  0.91062335  0.74804678  0.33075104     0.18900
N1878       N  0.90793017  0.75241537  0.14342947     0.76400
H1879       H  0.88537827  0.75385988  0.17284623     0.10400
C1880       C  0.86920297  0.76197764  0.24682600     0.04100
C1881       C  0.85531626  0.75986057  0.24811166    -0.04600
C1882       C  0.84384898  0.74739601  0.27022339    -0.23000
C1883       C  0.84648294  0.73681365  0.29158075     0.13300
C1884       C  0.86033002  0.73891261  0.29019852    -0.12200
N1885       N  0.88064800  0.77510752  0.22548235     0.65000
H1886       H  0.85351499  0.76817527  0.23238482     0.12900
N1887       N  0.83516363  0.72354024  0.31190887     0.61600
H1888       H  0.86211242  0.73049297  0.30489933     0.09000
O1889       O  0.91441791  0.76420053  0.11873243    -0.39800
O1890       O  0.90366038  0.74098940  0.11709730    -0.39000
O1891       O  0.88879984  0.74174012  0.39494992    -0.39000
O1892       O  0.88453807  0.75884320  0.37566665    -0.36700
O1893       O  0.83623336  0.71917721  0.35847708    -0.37600
O1894       O  0.82543588  0.71510665  0.27996155    -0.33800
O1895       O  0.87846651  0.78121603  0.18587072    -0.35200
O1896       O  0.89260261  0.78130165  0.24917030    -0.39500
C1897       C  0.98805512  0.78639142  0.02138259    -0.13200
C1898       C  0.99699421  0.78128592  0.00401692     0.17200
C1899       C  0.99666195  0.76975031  0.03188248     0.03500
C1900       C  0.98742443  0.76353701  0.07624349    -0.11700
C1901       C  0.97820545  0.76838085  0.09322886    -0.02700
C1902       C  0.97874384  0.78011356  0.06571724     0.02800
C1903       C  0.00699162  0.78828500  0.95787147     0.09600
N1904       N  0.00528939  0.76390836  0.01438945     0.66000
H1905       H  0.98717298  0.75453179  0.09642096     0.18900
N1906       N  0.97006458  0.78589933  0.08248426     0.76400
H1907       H  0.98843489  0.79541031  0.00075984     0.10400
C1908       C  0.00210376  0.78860237  0.90479500     0.04100
C1909       C  0.01189152  0.79405973  0.86146267    -0.04600
C1910       C  0.02648823  0.79904571  0.86982407    -0.23000
C1911       C  0.03143005  0.79969378  0.92385455     0.13300
C1912       C  0.02165659  0.79424235  0.96699697    -0.12200
N1913       N  0.98719185  0.78257993  0.89358078     0.65000
H1914       H  0.00788585  0.79353187  0.82047494     0.12900
N1915       N  0.04624657  0.80538620  0.93558142     0.61600
H1916       H  0.02551696  0.79439238  0.00797816     0.09000
O1917       O  0.96007228  0.78457849  0.05212106    -0.39800
O1918       O  0.97366205  0.79403660  0.12342971    -0.39000
O1919       O  0.01255966  0.76157686  0.04871229    -0.39000
O1920       O  0.00482006  0.76005987  0.96542833    -0.36700
O1921       O  0.05484426  0.81855990  0.92997855    -0.37600
O1922       O  0.05041668  0.79764935  0.95800753    -0.33800
O1923       O  0.98293800  0.78937687  0.86488430    -0.35200
O1924       O  0.97842992  0.76994651  0.90773625    -0.39500
C1925       C  0.99069259  0.75561130  0.43294050    -0.13200
C1926       C  0.99460963  0.76894535  0.45577247     0.17200
C1927       C  0.98916019  0.77716230  0.43236086     0.03500
C1928       C  0.98019321  0.77195405  0.38658303    -0.11700
C1929       C  0.97614722  0.75855100  0.36396408    -0.02700
C1930       C  0.98151315  0.75031904  0.38788930     0.02800
C1931       C  0.00498636  0.77444187  0.50194795     0.09600
N1932       N  0.99232425  0.79061088  0.45534583     0.66000
H1933       H  0.97604432  0.77839870  0.36923198     0.18900
N1934       N  0.97795745  0.73667688  0.36652783     0.76400
H1935       H  0.99501174  0.74926767  0.44991017     0.10400
C1936       C  0.00290168  0.76638051  0.55002168     0.04100
C1937       C  0.01329105  0.77184387  0.59129376    -0.04600
C1938       C  0.02558519  0.78535942  0.58684343    -0.23000
C1939       C  0.02773584  0.79328992  0.53836998     0.13300
C1940       C  0.01748664  0.78774484  0.49673025    -0.12200
N1941       N  0.99007863  0.75295897  0.55856926     0.65000
H1942       H  0.01137343  0.76566450  0.62863795     0.12900
N1943       N  0.04039431  0.80679107  0.53010053     0.61600
H1944       H  0.01942499  0.79386174  0.45916716     0.09000
O1945       O  0.96954022  0.72553160  0.39255405    -0.39800
O1946       O  0.98472179  0.73585862  0.32607676    -0.39000
O1947       O  0.99463019  0.80086985  0.42446446    -0.39000
O1948       O  0.99154559  0.79189839  0.50627012    -0.36700
O1949       O  0.05242254  0.80760678  0.52960245    -0.37600
O1950       O  0.03943831  0.81745554  0.51583643    -0.33800
O1951       O  0.99064047  0.74284531  0.58160513    -0.35200
O1952       O  0.97805951  0.75162975  0.54832300    -0.39500
C1953       C  0.79465935  0.56701889  0.05396560    -0.13200
C1954       C  0.78999023  0.57022454  0.10261956     0.17200
C1955       C  0.79840849  0.57314477  0.15025692     0.03500
C1956       C  0.81125218  0.57297827  0.14775842    -0.11700
C1957       C  0.81627394  0.57048379  0.09847704    -0.02700
C1958       C  0.80769175  0.56724634  0.05123958     0.02800
C1959       C  0.77622419  0.57022245  0.10310698     0.09600
N1960       N  0.79447683  0.57698060  0.20076822     0.66000
H1961       H  0.81776299  0.57562689  0.18428688     0.18900
N1962       N  0.81195245  0.56405807  0.00031136     0.76400
H1963       H  0.78809509  0.56430813  0.01754914     0.10400
C1964       C  0.77317879  0.57799713  0.06427551     0.04100
C1965       C  0.76011992  0.57774082  0.06678812    -0.04600
C1966       C  0.75011482  0.57030316  0.10818190    -0.23000
C1967       C  0.75304657  0.56226859  0.14605682     0.13300
C1968       C  0.76590203  0.56218217  0.14273967    -0.12200
N1969       N  0.78343536  0.58673361  0.02368913     0.65000
H1970       H  0.75812143  0.58405907  0.03757789     0.12900
N1971       N  0.74317765  0.55422490  0.18845024     0.61600
H1972       H  0.76789642  0.55583252  0.17183543     0.09000
O1973       O  0.81267679  0.57104591  0.95802846    -0.39800
O1974       O  0.81322590  0.55316236  0.99608547    -0.39000
O1975       O  0.79624944  0.57226948  0.24544422    -0.39000
O1976       O  0.79071141  0.58625537  0.20143196    -0.36700
O1977       O  0.73198605  0.54267502  0.17718416    -0.37600
O1978       O  0.74643664  0.55776454  0.23772235    -0.33800
O1979       O  0.77942521  0.58708151  0.97560547    -0.35200
O1980       O  0.79620866  0.59524610  0.03704071    -0.39500
C1981       C  0.87194635  0.54030433  0.27984213    -0.13200
C1982       C  0.87988361  0.54960656  0.32224687     0.17200
C1983       C  0.88269765  0.56378584  0.32125683     0.03500
C1984       C  0.87786400  0.56844653  0.27726200    -0.11700
C1985       C  0.87015196  0.55928145  0.23402877    -0.02700
C1986       C  0.86711512  0.54499542  0.23578269     0.02800
C1987       C  0.88624536  0.54481020  0.36484117     0.09600
N1988       N  0.89042016  0.57354304  0.36465194     0.66000
H1989       H  0.88022951  0.57943237  0.27697187     0.18900
N1990       N  0.85944502  0.53520605  0.19279043     0.76400
H1991       H  0.86987859  0.52941189  0.28009940     0.10400
C1992       C  0.87780064  0.53341597  0.40050787     0.04100
C1993       C  0.88446898  0.52958492  0.44080164    -0.04600
C1994       C  0.89938477  0.53704718  0.44688624    -0.23000
C1995       C  0.90780269  0.54796312  0.40913616     0.13300
C1996       C  0.90113771  0.55177173  0.36904483    -0.12200
N1997       N  0.86250975  0.52615579  0.39817159     0.65000
H1998       H  0.87786177  0.52120384  0.46954236     0.12900
N1999       N  0.92308376  0.55510241  0.41021733     0.61600
H2000       H  0.90766992  0.56022882  0.34039728     0.09000
O2001       O  0.84677846  0.52535428  0.20076067    -0.39800
O2002       O  0.86601821  0.53492911  0.15069728    -0.39000
O2003       O  0.89965098  0.58629305  0.35394046    -0.39000
O2004       O  0.88731617  0.56975617  0.41384561    -0.36700
O2005       O  0.92934097  0.54797005  0.40706110    -0.37600
O2006       O  0.93030596  0.56850940  0.40665519    -0.33800
O2007       O  0.85533695  0.51279954  0.40389642    -0.35200
O2008       O  0.85610385  0.53315344  0.39558080    -0.39500
C2009       C  0.87441395  0.54430255  0.90319524    -0.13200
C2010       C  0.88626548  0.55431738  0.87349701     0.17200
C2011       C  0.89268267  0.56884189  0.88689925     0.03500
C2012       C  0.88717146  0.57317892  0.92965632    -0.11700
C2013       C  0.87527721  0.56320345  0.95987679    -0.02700
C2014       C  0.86893992  0.54857779  0.94638728     0.02800
C2015       C  0.89145200  0.54959215  0.82677930     0.09600
N2016       N  0.90464080  0.57931296  0.85658993     0.66000
H2017       H  0.89223628  0.58444097  0.93906419     0.18900
N2018       N  0.85706571  0.53790141  0.97640118     0.76400
H2019       H  0.86942020  0.53309567  0.89285669     0.10400
C2020       C  0.90320301  0.54748776  0.83180817     0.04100
C2021       C  0.90854414  0.54420065  0.78529505    -0.04600
C2022       C  0.90213847  0.54262300  0.73388760    -0.23000
C2023       C  0.89030465  0.54471017  0.72934987     0.13300
C2024       C  0.88508033  0.54812180  0.77571502    -0.12200
N2025       N  0.90963032  0.54842780  0.88391619     0.65000
H2026       H  0.91751322  0.54247325  0.78974522     0.12900
N2027       N  0.88379651  0.54394549  0.67773380     0.61600
H2028       H  0.87617945  0.54997660  0.77163782     0.09000
O2029       O  0.85917617  0.53212327  0.01728692    -0.39800
O2030       O  0.84461022  0.53286156  0.95768453    -0.39000
O2031       O  0.90286034  0.58652685  0.82030036    -0.39000
O2032       O  0.91710515  0.58243096  0.87010251    -0.36700
O2033       O  0.87113657  0.53419733  0.66887252    -0.37600
O2034       O  0.88998631  0.55402026  0.64393696    -0.33800
O2035       O  0.90211100  0.54082816  0.92319199    -0.35200
O2036       O  0.92300651  0.55565361  0.88917864    -0.39500
C2037       C  0.89650166  0.64922977  0.08978282    -0.13200
C2038       C  0.90479071  0.65395301  0.13752681     0.17200
C2039       C  0.90488519  0.64376157  0.17329673     0.03500
C2040       C  0.89639108  0.62921321  0.16138303    -0.11700
C2041       C  0.88798581  0.62445171  0.11392994    -0.02700
C2042       C  0.88832138  0.63467869  0.07734308     0.02800
C2043       C  0.91236163  0.66941003  0.15149582     0.09600
N2044       N  0.91359275  0.64798183  0.22158200     0.66000
H2045       H  0.89642031  0.62153249  0.18970094     0.18900
N2046       N  0.88052512  0.63050578  0.02724841     0.76400
H2047       H  0.89625373  0.65691954  0.06210336     0.10400
C2048       C  0.92171459  0.68003369  0.11449957     0.04100
C2049       C  0.92789892  0.69447297  0.12898823    -0.04600
C2050       C  0.92534116  0.69862474  0.18019958    -0.23000
C2051       C  0.91600043  0.68795197  0.21695075     0.13300
C2052       C  0.90958487  0.67358039  0.20214659    -0.12200
N2053       N  0.92542431  0.67637238  0.06309764     0.65000
H2054       H  0.93519389  0.70252014  0.10058389     0.12900
N2055       N  0.91258688  0.69148331  0.26891628     0.61600
H2056       H  0.90214513  0.66556129  0.23033883     0.09000
O2057       O  0.88599560  0.62833772  0.98550571    -0.39800
O2058       O  0.86907723  0.63078573  0.02283356    -0.39000
O2059       O  0.90896971  0.64081753  0.26500791    -0.39000
O2060       O  0.92633450  0.65811632  0.21977773    -0.36700
O2061       O  0.90489329  0.69714449  0.27143630    -0.37600
O2062       O  0.91553940  0.68716107  0.31211805    -0.33800
O2063       O  0.92708466  0.68385170  0.02125280    -0.35200
O2064       O  0.92845312  0.66657582  0.06050215    -0.39500
C2065       C  0.79619864  0.22131006  0.03730718    -0.13200
C2066       C  0.79310604  0.21133808  0.07899144     0.17200
C2067       C  0.80249185  0.21491325  0.12348110     0.03500
C2068       C  0.81482736  0.22835248  0.12569851    -0.11700
C2069       C  0.81820327  0.23832979  0.08343885    -0.02700
C2070       C  0.80861456  0.23475236  0.03915556     0.02800
C2071       C  0.78004436  0.19718859  0.07588923     0.09600
N2072       N  0.79982286  0.20479804  0.16581197     0.66000
H2073       H  0.82207415  0.23076344  0.15976108     0.18900
N2074       N  0.81119605  0.24469386  0.99623520     0.76400
H2075       H  0.78890346  0.21864473  0.00324135     0.10400
C2076       C  0.76718496  0.19473141  0.09954490     0.04100
C2077       C  0.75528603  0.18094686  0.09985227    -0.04600
C2078       C  0.75591982  0.16942532  0.07653212    -0.23000
C2079       C  0.76886610  0.17204422  0.05214713     0.13300
C2080       C  0.78073808  0.18584659  0.05199845    -0.12200
N2081       N  0.76616165  0.20612696  0.12410000     0.65000
H2082       H  0.74551865  0.17926726  0.11881951     0.12900
N2083       N  0.77032039  0.16077708  0.02886193     0.61600
H2084       H  0.79068475  0.18767299  0.03420166     0.09000
O2085       O  0.80945323  0.25518105  0.00483024    -0.39800
O2086       O  0.81344271  0.24204524  0.94827169    -0.39000
O2087       O  0.80272270  0.19503507  0.15814423    -0.39000
O2088       O  0.79620471  0.20661070  0.21275211    -0.36700
O2089       O  0.76969873  0.15913426  0.97774155    -0.37600
O2090       O  0.77430546  0.15389389  0.05839634    -0.33800
O2091       O  0.76479597  0.21487603  0.09444799    -0.35200
O2092       O  0.76527480  0.20667124  0.17532268    -0.39500
C2093       C  0.88366593  0.13520384  0.32403167    -0.13200
C2094       C  0.88362428  0.12449813  0.29175708     0.17200
C2095       C  0.89568235  0.12782558  0.25937934     0.03500
C2096       C  0.90721073  0.14183244  0.25832147    -0.11700
C2097       C  0.90716745  0.15267500  0.28956974    -0.02700
C2098       C  0.89528042  0.14916323  0.32345219     0.02800
C2099       C  0.87034247  0.11039838  0.28764180     0.09600
N2100       N  0.89635473  0.11710121  0.22738144     0.66000
H2101       H  0.91630459  0.14423244  0.23263796     0.18900
N2102       N  0.89456765  0.15970724  0.35601778     0.76400
H2103       H  0.87437556  0.13281624  0.34851383     0.10400
C2104       C  0.86346812  0.10201742  0.33411547     0.04100
C2105       C  0.85027552  0.08940660  0.32806271    -0.04600
C2106       C  0.84381692  0.08482266  0.27655824    -0.23000
C2107       C  0.85074605  0.09330429  0.23022976     0.13300
C2108       C  0.86390114  0.10585770  0.23628351    -0.12200
N2109       N  0.86984147  0.10601317  0.38732046     0.65000
H2110       H  0.84513921  0.08298399  0.36398505     0.12900
N2111       N  0.84424749  0.08984242  0.17730417     0.61600
H2112       H  0.86889647  0.11247529  0.20061536     0.09000
O2113       O  0.89768245  0.16078340  0.40608846    -0.39800
O2114       O  0.88903386  0.16658426  0.33665530    -0.39000
O2115       O  0.90135946  0.11989313  0.17952964    -0.39000
O2116       O  0.89284566  0.10512611  0.24807776    -0.36700
O2117       O  0.83266265  0.08968772  0.16952915    -0.37600
O2118       O  0.85123792  0.08949981  0.13669050    -0.33800
O2119       O  0.86217573  0.10418825  0.42875629    -0.35200
O2120       O  0.88293892  0.11030224  0.39367479    -0.39500
C2121       C  0.92103133  0.24203675  0.20540100    -0.13200
C2122       C  0.90772174  0.23465849  0.17935577     0.17200
C2123       C  0.90154630  0.21987044  0.16988274     0.03500
C2124       C  0.90885746  0.21289943  0.18631129    -0.11700
C2125       C  0.92200357  0.22020088  0.21360494    -0.02700
C2126       C  0.92816255  0.23498964  0.22283009     0.02800
C2127       C  0.90061542  0.24264374  0.16137599     0.09600
N2128       N  0.88767134  0.21169191  0.14563832     0.66000
H2129       H  0.90391445  0.20149986  0.17948898     0.18900
N2130       N  0.94181676  0.24310013  0.24829167     0.76400
H2131       H  0.92602533  0.25346282  0.21175140     0.10400
C2132       C  0.89808991  0.25116053  0.19814720     0.04100
C2133       C  0.89144168  0.25857151  0.17940470    -0.04600
C2134       C  0.88683141  0.25744449  0.12501609    -0.23000
C2135       C  0.88968172  0.24918807  0.08808667     0.13300
C2136       C  0.89659436  0.24198433  0.10643870    -0.12200
N2137       N  0.90164751  0.25194336  0.25501270     0.65000
H2138       H  0.88933637  0.26482485  0.20854360     0.12900
N2139       N  0.88548437  0.24783144  0.03211064     0.61600
H2140       H  0.89876993  0.23572640  0.07753247     0.09000
O2141       O  0.94299592  0.24974186  0.29205236    -0.39800
O2142       O  0.95290009  0.24517366  0.22344531    -0.39000
O2143       O  0.88525272  0.20195124  0.11185033    -0.39000
O2144       O  0.87743635  0.21313486  0.16212350    -0.36700
O2145       O  0.89363666  0.25699506  0.99780039    -0.37600
O2146       O  0.87469666  0.23653261  0.01575658    -0.33800
O2147       O  0.90707751  0.26372224  0.27977668    -0.35200
O2148       O  0.89806864  0.24071046  0.28187449    -0.39500
C2149       C  0.19125883  0.41240494  0.97044014    -0.13200
C2150       C  0.20194072  0.42201207  0.93503857     0.17200
C2151       C  0.19906725  0.43067133  0.90054261     0.03500
C2152       C  0.18549567  0.42930353  0.90126824    -0.11700
C2153       C  0.17466554  0.41951937  0.93611715    -0.02700
C2154       C  0.17768816  0.41097647  0.97107737     0.02800
C2155       C  0.21542428  0.42167365  0.93083927     0.09600
N2156       N  0.20985468  0.44095982  0.86504093     0.66000
H2157       H  0.18345351  0.43603970  0.87446940     0.18900
N2158       N  0.16695108  0.40024827  0.00525816     0.76400
H2159       H  0.19327846  0.40545048  0.99610014     0.10400
C2160       C  0.22397274  0.42364773  0.97708065     0.04100
C2161       C  0.23548320  0.42123045  0.97298508    -0.04600
C2162       C  0.23882454  0.41702235  0.92344050    -0.23000
C2163       C  0.23032931  0.41526565  0.87694979     0.13300
C2164       C  0.21884523  0.41771039  0.88109767    -0.12200
N2165       N  0.22116452  0.42823179  0.02818701     0.65000
H2166       H  0.24197483  0.42282769  0.00891113     0.12900
N2167       N  0.23269098  0.41030545  0.82602194     0.61600
H2168       H  0.21209866  0.41582752  0.84569244     0.09000
O2169       O  0.16890680  0.40063301  0.05617245    -0.39800
O2170       O  0.15693804  0.38911782  0.98395683    -0.39000
O2171       O  0.20688298  0.44213110  0.81617710    -0.39000
O2172       O  0.22212117  0.44953099  0.88337413    -0.36700
O2173       O  0.23018286  0.39765684  0.82206527    -0.37600
O2174       O  0.23476340  0.41758347  0.78324478    -0.33800
O2175       O  0.22191836  0.42263204  0.07231317    -0.35200
O2176       O  0.21889193  0.43854870  0.02970691    -0.39500
C2177       C  0.10361455  0.23962310  0.80232117    -0.13200
C2178       C  0.10876016  0.23867305  0.75095965     0.17200
C2179       C  0.10140394  0.23872958  0.70338809     0.03500
C2180       C  0.08959806  0.24066787  0.70837450    -0.11700
C2181       C  0.08472664  0.24217191  0.75972551    -0.02700
C2182       C  0.09174381  0.24139964  0.80715609     0.02800
C2183       C  0.12271192  0.23932280  0.74773068     0.09600
N2184       N  0.10584845  0.23693670  0.65005746     0.66000
H2185       H  0.08409552  0.24089031  0.67167881     0.18900
N2186       N  0.08750479  0.24324289  0.86037832     0.76400
H2187       H  0.10929713  0.23969055  0.83894142     0.10400
C2188       C  0.13456300  0.25093115  0.72234797     0.04100
C2189       C  0.14740648  0.25086354  0.71805042    -0.04600
C2190       C  0.14895074  0.23976832  0.74019843    -0.23000
C2191       C  0.13707201  0.22824129  0.76593796     0.13300
C2192       C  0.12413326  0.22816746  0.76962119    -0.12200
N2193       N  0.13390362  0.26307816  0.70268045     0.65000
H2194       H  0.15649679  0.25995993  0.69923736     0.12900
N2195       N  0.13790307  0.21649347  0.78811134     0.61600
H2196       H  0.11503078  0.21921273  0.78906290     0.09000
O2197       O  0.09200573  0.25563262  0.87883936    -0.39800
O2198       O  0.08083557  0.23261932  0.89142722    -0.39000
O2199       O  0.11026305  0.22828713  0.64282320    -0.39000
O2200       O  0.10424357  0.24307891  0.60915949    -0.36700
O2201       O  0.13663168  0.21421540  0.83889969    -0.37600
O2202       O  0.13809336  0.20740887  0.75652039    -0.33800
O2203       O  0.12783332  0.26827737  0.73064083    -0.35200
O2204       O  0.14079671  0.26963544  0.66055229    -0.39500
C2205       C  0.98065664  0.20150692  0.04695676    -0.13200
C2206       C  0.98968691  0.21604424  0.03609417     0.17200
C2207       C  0.98928192  0.22627104  0.07043333     0.03500
C2208       C  0.97979140  0.22173663  0.11453381    -0.11700
C2209       C  0.97075732  0.20718749  0.12584569    -0.02700
C2210       C  0.97121410  0.19699573  0.09127174     0.02800
C2211       C  0.99888479  0.22041450  0.98696661     0.09600
N2212       N  0.99859167  0.24126399  0.06161908     0.66000
H2213       H  0.97965508  0.22973445  0.14067808     0.18900
N2214       N  0.96209547  0.18205926  0.10009211     0.76400
H2215       H  0.98077248  0.19359443  0.02019517     0.10400
C2216       C  0.00938479  0.21653542  0.97937883     0.04100
C2217       C  0.01798245  0.22117733  0.93253767    -0.04600
C2218       C  0.01652819  0.22988003  0.89359238    -0.23000
C2219       C  0.00553646  0.23317126  0.90019206     0.13300
C2220       C  0.99692911  0.22847899  0.94683355    -0.12200
N2221       N  0.01194213  0.20856884  0.02007898     0.65000
H2222       H  0.02640345  0.21860890  0.92818506     0.12900
N2223       N  0.00281073  0.24104492  0.85969789     0.61600
H2224       H  0.98854448  0.23108832  0.95175459     0.09000
O2225       O  0.96704783  0.17487463  0.12148435    -0.39800
O2226       O  0.94977650  0.17574281  0.07937367    -0.39000
O2227       O  0.99395368  0.24978159  0.06714547    -0.39000
O2228       O  0.01171463  0.24616936  0.05276766    -0.36700
O2229       O  0.99986868  0.23642829  0.81136893    -0.37600
O2230       O  0.00147684  0.25150981  0.87363347    -0.33800
O2231       O  0.01386627  0.19846924  0.00609091    -0.35200
O2232       O  0.01362239  0.21243877  0.06942919    -0.39500
C2233       C  0.00802988  0.23766821  0.55206854    -0.13200
C2234       C  0.99963502  0.22287125  0.54537722     0.17200
C2235       C  0.00225023  0.21380399  0.57872496     0.03500
C2236       C  0.01310723  0.21976023  0.61804025    -0.11700
C2237       C  0.02129815  0.23457859  0.62581532    -0.02700
C2238       C  0.01880942  0.24361015  0.59153745     0.02800
C2239       C  0.98890435  0.21721566  0.50077696     0.09600
N2240       N  0.99367247  0.19857774  0.57452941     0.66000
H2241       H  0.01475142  0.21263699  0.64435446     0.18900
N2242       N  0.02723227  0.25880375  0.59549602     0.76400
H2243       H  0.00636596  0.24473193  0.52542269     0.10400
C2244       C  0.97819607  0.22094279  0.49623263     0.04100
C2245       C  0.96922194  0.21648520  0.45039037    -0.04600
C2246       C  0.97048978  0.20819295  0.40907339    -0.23000
C2247       C  0.98116009  0.20437732  0.41425001     0.13300
C2248       C  0.99014834  0.20887752  0.45988177    -0.12200
N2249       N  0.97616638  0.22902292  0.53811296     0.65000
H2250       H  0.96100149  0.21939660  0.44750402     0.12900
N2251       N  0.98340017  0.19638325  0.37291744     0.61600
H2252       H  0.99856595  0.20622327  0.46251032     0.09000
O2253       O  0.02122361  0.26607376  0.60243175    -0.39800
O2254       O  0.04034270  0.26503951  0.58384761    -0.39000
O2255       O  0.99936708  0.19094192  0.57880311    -0.39000
O2256       O  0.98026182  0.19265058  0.57159938    -0.36700
O2257       O  0.98860993  0.20213325  0.32744718    -0.37600
O2258       O  0.98284231  0.18482679  0.38531309    -0.33800
O2259       O  0.97308498  0.23843166  0.52544906    -0.35200
O2260       O  0.97631655  0.22602291  0.58783636    -0.39500
C2261       C  0.10378925  0.34915460  0.82157618    -0.13200
C2262       C  0.09088406  0.34026257  0.84832116     0.17200
C2263       C  0.08634315  0.34578870  0.89094445     0.03500
C2264       C  0.09494884  0.36009031  0.90635524    -0.11700
C2265       C  0.10792863  0.36906084  0.87970704    -0.02700
C2266       C  0.11244921  0.36340322  0.83715855     0.02800
C2267       C  0.08314795  0.32490135  0.83485010     0.09600
N2268       N  0.07292701  0.33710940  0.91794735     0.66000
H2269       H  0.09125019  0.36433139  0.93853415     0.18900
N2270       N  0.12608326  0.37168388  0.81136271     0.76400
H2271       H  0.10746858  0.34477504  0.78981004     0.10400
C2272       C  0.07710441  0.31993671  0.78283139     0.04100
C2273       C  0.07130816  0.30546061  0.77008519    -0.04600
C2274       C  0.07123715  0.29577377  0.80841547    -0.23000
C2275       C  0.07740607  0.30088010  0.86044733     0.13300
C2276       C  0.08311189  0.31530942  0.87316907    -0.12200
N2277       N  0.07646857  0.32937729  0.74328192     0.65000
H2278       H  0.06642878  0.30167664  0.73031186     0.12900
N2279       N  0.07859673  0.29177072  0.89987652     0.61600
H2280       H  0.08811783  0.31921474  0.91271123     0.09000
O2281       O  0.12706705  0.37168479  0.75999991    -0.39800
O2282       O  0.13730395  0.37702816  0.83981477    -0.39000
O2283       O  0.07179422  0.33836888  0.96866718    -0.39000
O2284       O  0.06189563  0.32908235  0.89054727    -0.36700
O2285       O  0.08559525  0.28569229  0.88838431    -0.37600
O2286       O  0.07472907  0.29165180  0.94858837    -0.33800
O2287       O  0.07832601  0.32801692  0.69325101    -0.35200
O2288       O  0.07279614  0.33825035  0.75754877    -0.39500
C2289       C  0.90979964  0.44061054  0.65821696    -0.13200
C2290       C  0.90347621  0.44400723  0.61526004     0.17200
C2291       C  0.89725517  0.43434486  0.57141784     0.03500
C2292       C  0.89818271  0.42194034  0.57021498    -0.11700
C2293       C  0.90495069  0.41873966  0.61218140    -0.02700
C2294       C  0.91042696  0.42804002  0.65749224     0.02800
C2295       C  0.90515725  0.45843328  0.61296471     0.09600
N2296       N  0.89024725  0.43714446  0.52737487     0.66000
H2297       H  0.89371450  0.41481586  0.53544912     0.18900
N2298       N  0.91699618  0.42510490  0.70234711     0.76400
H2299       H  0.91472022  0.44802787  0.69192868     0.10400
C2300       C  0.90094799  0.46414260  0.65622426     0.04100
C2301       C  0.90360535  0.47818565  0.65236187    -0.04600
C2302       C  0.91013094  0.48655778  0.60586912    -0.23000
C2303       C  0.91451913  0.48083451  0.56330816     0.13300
C2304       C  0.91202190  0.46695386  0.56737009    -0.12200
N2305       N  0.89368928  0.45575323  0.70337932     0.65000
H2306       H  0.90014657  0.48244923  0.68538935     0.12900
N2307       N  0.92212316  0.48917178  0.51678486     0.61600
H2308       H  0.91580361  0.46285690  0.53480706     0.09000
O2309       O  0.93028513  0.43261853  0.70956913    -0.39800
O2310       O  0.90933787  0.41622658  0.73840006    -0.39000
O2311       O  0.89170720  0.43414324  0.47887240    -0.39000
O2312       O  0.88200073  0.44193858  0.53700445    -0.36700
O2313       O  0.93491329  0.49901446  0.52189771    -0.37600
O2314       O  0.91686710  0.48533420  0.46966082    -0.33800
O2315       O  0.89673521  0.46128223  0.75034562    -0.35200
O2316       O  0.88342554  0.44317819  0.69791353    -0.39500
C2317       C  0.87723218  0.34058350  0.37985320    -0.13200
C2318       C  0.88438711  0.33339241  0.36419157     0.17200
C2319       C  0.89673870  0.33595627  0.39300378     0.03500
C2320       C  0.90181535  0.34586696  0.43575357    -0.11700
C2321       C  0.89475491  0.35318915  0.45136408    -0.02700
C2322       C  0.88225013  0.35038880  0.42296231     0.02800
C2323       C  0.87958616  0.32422610  0.31479810     0.09600
N2324       N  0.90411336  0.32845136  0.37980998     0.66000
H2325       H  0.91133988  0.34772200  0.45742129     0.18900
N2326       N  0.87459935  0.35749820  0.43677962     0.76400
H2327       H  0.86783436  0.33883002  0.35743591     0.10400
C2328       C  0.86554392  0.31262448  0.30941248     0.04100
C2329       C  0.86154895  0.30455067  0.26115196    -0.04600
C2330       C  0.87134881  0.30759291  0.21848402    -0.23000
C2331       C  0.88525658  0.31954273  0.22339035     0.13300
C2332       C  0.88918496  0.32762847  0.27136350    -0.12200
N2333       N  0.85547045  0.30850616  0.35337220     0.65000
H2334       H  0.85088740  0.29534059  0.25826391     0.12900
N2335       N  0.89545169  0.32378904  0.17989021     0.61600
H2336       H  0.89984930  0.33684121  0.27454119     0.09000
O2337       O  0.86283961  0.35080323  0.46161591    -0.39800
O2338       O  0.87838978  0.36959163  0.41665158    -0.39000
O2339       O  0.91757423  0.33493769  0.37942112    -0.39000
O2340       O  0.89724565  0.31512524  0.37287704    -0.36700
O2341       O  0.89248528  0.32660716  0.13336950    -0.37600
O2342       O  0.90804574  0.32666010  0.18979924    -0.33800
O2343       O  0.84262529  0.30474788  0.34358922    -0.35200
O2344       O  0.85904068  0.30730855  0.40127931    -0.39500
C2345       C  0.89943124  0.34482050  0.81119828    -0.13200
C2346       C  0.88535431  0.33347192  0.80855588     0.17200
C2347       C  0.87642771  0.33294159  0.76577257     0.03500
C2348       C  0.88182786  0.34367091  0.72589674    -0.11700
C2349       C  0.89607211  0.35488018  0.72745815    -0.02700
C2350       C  0.90483197  0.35563373  0.77168368     0.02800
C2351       C  0.88001446  0.32270002  0.85268081     0.09600
N2352       N  0.86208353  0.32128896  0.76113746     0.66000
H2353       H  0.87498766  0.34287733  0.69216689     0.18900
N2354       N  0.91899136  0.36751197  0.77827100     0.76400
H2355       H  0.90615495  0.34544790  0.84513103     0.10400
C2356       C  0.88521207  0.31320826  0.85922387     0.04100
C2357       C  0.88108008  0.30426264  0.90514786    -0.04600
C2358       C  0.87174784  0.30446784  0.94458017    -0.23000
C2359       C  0.86648710  0.31394878  0.93730023     0.13300
C2360       C  0.87055399  0.32282211  0.89131254    -0.12200
N2361       N  0.89452885  0.31243769  0.81936303     0.65000
H2362       H  0.88508463  0.29695278  0.90964265     0.12900
N2363       N  0.85757733  0.31522914  0.97729983     0.61600
H2364       H  0.86674543  0.33029979  0.88680338     0.09000
O2365       O  0.92910859  0.36543901  0.79056541    -0.39800
O2366       O  0.92098867  0.38001089  0.77988161    -0.39000
O2367       O  0.85202883  0.32363433  0.75113921    -0.39000
O2368       O  0.85961210  0.30861850  0.76204239    -0.36700
O2369       O  0.86288565  0.32137391  0.02206773    -0.37600
O2370       O  0.84513725  0.31236563  0.96458891    -0.33800
O2371       O  0.90452089  0.31042667  0.83429113    -0.35200
O2372       O  0.89209492  0.31257043  0.76901256    -0.39500
C2373       C  0.09611020  0.53451112  0.41895188    -0.13200
C2374       C  0.08394195  0.53527906  0.40541751     0.17200
C2375       C  0.07132450  0.52267533  0.39031888     0.03500
C2376       C  0.07125411  0.50974335  0.38883149    -0.11700
C2377       C  0.08328354  0.50888084  0.40396274    -0.02700
C2378       C  0.09592512  0.52151332  0.41864620     0.02800
C2379       C  0.08474372  0.54936457  0.40485649     0.09600
N2380       N  0.05836138  0.52273050  0.37893763     0.66000
H2381       H  0.06131728  0.50003565  0.37843434     0.18900
N2382       N  0.10870509  0.52137700  0.43212710     0.76400
H2383       H  0.10603245  0.54425936  0.42926907     0.10400
C2384       C  0.08960156  0.55854411  0.45058753     0.04100
C2385       C  0.09027009  0.57176249  0.44774092    -0.04600
C2386       C  0.08582461  0.57596740  0.40093630    -0.23000
C2387       C  0.08136330  0.56692346  0.35472562     0.13300
C2388       C  0.08092156  0.55382477  0.35724465    -0.12200
N2389       N  0.09319080  0.55431294  0.50090829     0.65000
H2390       H  0.09360826  0.57852744  0.48406274     0.12900
N2391       N  0.07734446  0.57088748  0.30493994     0.61600
H2392       H  0.07756933  0.54698740  0.32107022     0.09000
O2393       O  0.11520810  0.52700006  0.47601260    -0.39800
O2394       O  0.11442006  0.51722477  0.39735335    -0.39000
O2395       O  0.05037678  0.51530038  0.34032301    -0.39000
O2396       O  0.05412786  0.52899432  0.41074754    -0.36700
O2397       O  0.08640227  0.58171035  0.27883351    -0.37600
O2398       O  0.06540534  0.56259557  0.28344097    -0.33800
O2399       O  0.10409470  0.56308760  0.52734378    -0.35200
O2400       O  0.08476826  0.54231600  0.52171892    -0.39500
C2401       C  0.12372591  0.44689276  0.71046237    -0.13200
C2402       C  0.10931085  0.44301109  0.70782942     0.17200
C2403       C  0.09977538  0.43392897  0.74801566     0.03500
C2404       C  0.10474914  0.42857758  0.78916158    -0.11700
C2405       C  0.11915232  0.43225247  0.79171017    -0.02700
C2406       C  0.12871931  0.44156401  0.75171435     0.02800
C2407       C  0.10407522  0.44728357  0.65978777     0.09600
N2408       N  0.08508090  0.43022658  0.74781043     0.66000
H2409       H  0.09726421  0.42162101  0.81994471     0.18900
N2410       N  0.14333884  0.44516525  0.75074791     0.76400
H2411       H  0.13105400  0.45369387  0.67894401     0.10400
C2412       C  0.10823085  0.46163442  0.64937240     0.04100
C2413       C  0.10349928  0.46509002  0.60147725    -0.04600
C2414       C  0.09455684  0.45451007  0.56405531    -0.23000
C2415       C  0.09058155  0.44016839  0.57478640     0.13300
C2416       C  0.09527894  0.43673164  0.62248323    -0.12200
N2417       N  0.11682345  0.47268470  0.68766482     0.65000
H2418       H  0.10652547  0.47612452  0.59428078     0.12900
N2419       N  0.08198210  0.42896756  0.53745227     0.61600
H2420       H  0.09225757  0.42570035  0.63002172     0.09000
O2421       O  0.15302825  0.45777657  0.76065409    -0.39800
O2422       O  0.14663009  0.43633478  0.73237374    -0.39000
O2423       O  0.07539212  0.41750344  0.75600019    -0.39000
O2424       O  0.08181398  0.43983552  0.74397519    -0.36700
O2425       O  0.08740770  0.42767831  0.49376177    -0.37600
O2426       O  0.06978721  0.41915542  0.55190629    -0.33800
O2427       O  0.12606637  0.48487923  0.67080316    -0.35200
O2428       O  0.11431242  0.47072553  0.73823225    -0.39500
C2429       C  0.09086702  0.43993720  0.20387792    -0.13200
C2430       C  0.10557952  0.44504888  0.20194135     0.17200
C2431       C  0.11457720  0.45536094  0.24010267     0.03500
C2432       C  0.10871729  0.46021606  0.27986283    -0.11700
C2433       C  0.09391827  0.45485911  0.28291823    -0.02700
C2434       C  0.08496216  0.44481804  0.24337056     0.02800
C2435       C  0.11139916  0.44010401  0.15765875     0.09600
N2436       N  0.12959879  0.46053221  0.24031321     0.66000
H2437       H  0.11578715  0.46784743  0.30990557     0.18900
N2438       N  0.06996017  0.43977371  0.24160565     0.76400
H2439       H  0.08393924  0.43233272  0.17343334     0.10400
C2440       C  0.10704341  0.42558277  0.15176543     0.04100
C2441       C  0.11164037  0.42102777  0.10666732    -0.04600
C2442       C  0.12066575  0.43072273  0.06685788    -0.23000
C2443       C  0.12508107  0.44534789  0.07303985     0.13300
C2444       C  0.12053432  0.44986990  0.11854835    -0.12200
N2445       N  0.09814020  0.41539524  0.19189507     0.65000
H2446       H  0.10818369  0.40978476  0.10312027     0.12900
N2447       N  0.13351272  0.45563694  0.03232165     0.61600
H2448       H  0.12367288  0.46103872  0.12220711     0.09000
O2449       O  0.06117790  0.42657171  0.23913490    -0.39800
O2450       O  0.06562201  0.44847292  0.23404140    -0.39000
O2451       O  0.13833495  0.47374955  0.23839483    -0.39000
O2452       O  0.13415681  0.45195702  0.24610732    -0.36700
O2453       O  0.12823245  0.45511708  0.98585853    -0.37600
O2454       O  0.14509362  0.46655660  0.04560241    -0.33800
O2455       O  0.08606899  0.40516536  0.17862028    -0.35200
O2456       O  0.10270478  0.41610059  0.23985656    -0.39500
C2457       C  0.01265912  0.43895224  0.53463120    -0.13200
C2458       C  0.00286656  0.42753790  0.50237900     0.17200
C2459       C  0.00771269  0.42402834  0.45450654     0.03500
C2460       C  0.02214275  0.43211983  0.43971329    -0.11700
C2461       C  0.03201219  0.44350849  0.47214355    -0.02700
C2462       C  0.02708831  0.44694449  0.52015181     0.02800
C2463       C  0.98749404  0.42006784  0.51734295     0.09600
N2464       N  0.99821205  0.41206724  0.42140898     0.66000
H2465       H  0.02573545  0.42918684  0.40312986     0.18900
N2466       N  0.03645139  0.45873190  0.55392755     0.76400
H2467       H  0.00897404  0.44194634  0.57083458     0.10400
C2468       C  0.98268917  0.41392512  0.56945626     0.04100
C2469       C  0.96814053  0.40743259  0.58234174    -0.04600
C2470       C  0.95813715  0.40676434  0.54418429    -0.23000
C2471       C  0.96305868  0.41317140  0.49240794     0.13300
C2472       C  0.97758785  0.41971906  0.47963672    -0.12200
N2473       N  0.99237490  0.41386509  0.60914957     0.65000
H2474       H  0.96460999  0.40258925  0.62234049     0.12900
N2475       N  0.95348547  0.41310171  0.45215532     0.61600
H2476       H  0.98120251  0.42470428  0.43987021     0.09000
O2477       O  0.03801072  0.45668551  0.60356000    -0.39800
O2478       O  0.04131060  0.47129521  0.53668025    -0.39000
O2479       O  0.99898690  0.41300120  0.37000054    -0.39000
O2480       O  0.98985638  0.40019967  0.44329499    -0.36700
O2481       O  0.94979568  0.40456153  0.41247531    -0.37600
O2482       O  0.95047331  0.42291901  0.45179500    -0.33800
O2483       O  0.99199022  0.41746132  0.65785171    -0.35200
O2484       O  0.00058170  0.40920516  0.59669420    -0.39500
loop_ 
_geom_bond_atom_site_label_1 
_geom_bond_atom_site_label_2 
_geom_bond_distance 
_geom_bond_site_symmetry_2 
_ccdc_geom_bond_type 
O1            C4   1.264       .  A
O1           Cd6   2.470       .  S
C2           O11   1.264       .  A
C2            O7   1.267       .  A
C2         C2461   1.488       .  S
O3            C9   1.266       .  A
O3           Cd6   2.474       .  S
C4           O12   1.265       .  A
C4         C2433   1.488       .  S
C5           O10   1.265       .  A
C5            O8   1.265       .  A
C5         C2377   1.483       .  S
Cd6          O13   2.451       .  S
Cd6          O12   2.476       .  S
Cd6          O11   2.455       .  S
Cd6           O7   2.475       .  S
Cd6          O10   2.473       .  S
Cd6           O8   2.458       .  S
C9           O13   1.264       .  A
C9         C2414   1.487       .  S
O14          C17   1.267       .  A
O14         Cd19   2.470       .  S
C15          O24   1.265       .  A
C15          O20   1.265       .  A
C15        C2349   1.484       .  S
O16          C22   1.266       .  A
O16         Cd19   2.457       .  S
C17          O25   1.265       .  A
C17        C2470   1.487       .  S
C18          O23   1.265       .  A
C18          O21   1.266       .  A
C18        C2321   1.487       .  S
Cd19         O26   2.464       .  S
Cd19         O25   2.464       .  S
Cd19         O24   2.468       .  S
Cd19         O20   2.459       .  S
Cd19         O23   2.451       .  S
Cd19         O21   2.475       .  S
C22          O26   1.264       .  A
C22        C2293   1.484       .  S
O27          C30   1.266       .  A
O27         Cd32   2.479       .  S
C28          O37   1.266       .  A
C28          O33   1.265       .  A
C28        C2237   1.486       .  S
O29          C35   1.263       .  A
O29         Cd32   2.460       .  S
C30          O38   1.263       .  A
C30        C2274   1.485       .  S
C31          O36   1.266       .  A
C31          O34   1.264       .  A
C31        C2218   1.482       .  S
Cd32         O39   2.468       .  S
Cd32         O38   2.452       .  S
Cd32         O37   2.463       .  S
Cd32         O33   2.457       .  S
Cd32         O36   2.470       .  S
Cd32         O34   2.441       .  S
C35          O39   1.265       .  A
C35        C2181   1.483       .  S
O40          C43   1.265       .  A
O40         Cd45   2.469       .  S
C41          O50   1.265       .  A
C41          O46   1.266       .  A
C41        C2405   1.484       .  S
O42          C48   1.266       .  A
O42         Cd45   2.471       .  S
C43          O51   1.264       .  A
C43        C2153   1.487       .  S
C44          O49   1.265       .  A
C44          O47   1.265   1_554  A
C44        C2442   1.488       .  S
Cd45         O52   2.450       .  S
Cd45         O51   2.466       .  S
Cd45         O50   2.444       .  S
Cd45         O46   2.473       .  S
Cd45         O49   2.464   1_556  S
Cd45         O47   2.476       .  S
C48          O52   1.264       .  A
C48        C2265   1.483       .  S
O53          C56   1.266       .  A
O53         Cd58   2.476       .  S
C54          O63   1.265       .  A
C54          O59   1.265       .  A
C54        C2125   1.483       .  S
O55          C61   1.265       .  A
O55         Cd58   2.474       .  S
C56          O64   1.263       .  A
C56        C2246   1.488       .  S
C57          O62   1.266       .  A
C57          O60   1.266       .  A
C57        C2097   1.488       .  S
Cd58         O65   2.440       .  S
Cd58         O64   2.462       .  S
Cd58         O63   2.455       .  S
Cd58         O59   2.469       .  S
Cd58         O62   2.452       .  S
Cd58         O60   2.477       .  S
C61          O65   1.264       .  A
C61        C2209   1.483       .  S
O66          C69   1.267   1_554  A
O66         Cd71   2.469       .  S
C67          O76   1.263       .  A
C67          O72   1.267       .  A
C67        C2134   1.486       .  S
O68          C74   1.268       .  A
O68         Cd71   2.486       .  S
C69          O77   1.265   1_556  A
C69        C2358   1.488       .  S
C70          O75   1.264       .  A
C70          O73   1.264       .  A
C70        C2069   1.486       .  S
Cd71         O78   2.433       .  S
Cd71         O77   2.459       .  S
Cd71         O76   2.433       .  S
Cd71         O72   2.499       .  S
Cd71         O75   2.471       .  S
Cd71         O73   2.488       .  S
C74          O78   1.263       .  A
C74        C2330   1.485       .  S
O79          C82   1.264       .  A
O79         Cd84   2.446       .  S
C80          O89   1.264       .  A
C80          O85   1.265       .  A
C80        C2013   1.486   1_554  S
O81          C87   1.265       .  A
O81         Cd84   2.481       .  S
C82          O90   1.267       .  A
C82        C2041   1.488       .  S
C83          O88   1.264       .  A
C83          O86   1.264       .  A
C83        C1957   1.488       .  S
Cd84         O91   2.442       .  S
Cd84         O90   2.496       .  S
Cd84         O89   2.468       .  S
Cd84         O85   2.467       .  S
Cd84         O88   2.476       .  S
Cd84         O86   2.488       .  S
C87          O91   1.264       .  A
C87        C1985   1.485       .  S
O92          C95   1.265       .  A
O92         Cd97   2.483       .  S
C93         O102   1.264       .  A
C93          O98   1.265       .  A
C93        C2050   1.488       .  S
O94         C100   1.265       .  A
O94         Cd97   2.479       .  S
C95         O103   1.266       .  A
C95        C1929   1.491       .  S
C96         O101   1.266       .  A
C96          O99   1.265       .  A
C96        C1901   1.488       .  S
Cd97        O104   2.470       .  S
Cd97        O103   2.472       .  S
Cd97        O102   2.477       .  S
Cd97         O98   2.477       .  S
Cd97        O101   2.483       .  S
Cd97         O99   2.448       .  S
C100        O104   1.265       .  A
C100       C1873   1.489       .  S
O105        C108   1.265       .  A
O105       Cd110   2.478       .  S
C106        O115   1.265       .  A
C106        O111   1.265       .  A
C106       C1789   1.482   1_556  S
O107        C113   1.265       .  A
O107       Cd110   2.443       .  S
C108        O116   1.262       .  A
C108       C1845   1.487       .  S
C109        O114   1.265       .  A
C109        O112   1.264       .  A
C109       C1761   1.485       .  S
Cd110       O117   2.479       .  S
Cd110       O116   2.461       .  S
Cd110       O115   2.463       .  S
Cd110       O111   2.473       .  S
Cd110       O114   2.472       .  S
Cd110       O112   2.465       .  S
C113        O117   1.266       .  A
C113       C1817   1.486       .  S
O118        C121   1.265       .  A
O118       Cd123   2.472       .  S
C119        O128   1.262       .  A
C119        O124   1.267       .  A
C119       C1854   1.487       .  S
O120        C126   1.266       .  A
O120       Cd123   2.488       .  S
C121        O129   1.266       .  A
C121       C1938   1.489       .  S
C122        O127   1.263       .  A
C122        O125   1.266       .  A
C122       C1910   1.487       .  S
Cd123       O130   2.456       .  S
Cd123       O129   2.483       .  S
Cd123       O128   2.446       .  S
Cd123       O124   2.487       .  S
Cd123       O127   2.448       .  S
Cd123       O125   2.484       .  S
C126        O130   1.263       .  A
C126       C1733   1.489       .  S
O131        C134   1.262       .  A
O131       Cd136   2.447       .  S
C132        O141   1.263       .  A
C132        O137   1.266       .  A
C132       C2022   1.484       .  S
O133        C139   1.264       .  A
O133       Cd136   2.446       .  S
C134        O142   1.266       .  A
C134       C1714   1.484       .  S
C135        O140   1.264       .  A
C135        O138   1.266       .  A
C135       C2302   1.481       .  S
Cd136       O143   2.481       .  S
Cd136       O142   2.474       .  S
Cd136       O141   2.456       .  S
Cd136       O137   2.479       .  S
Cd136       O140   2.436       .  S
Cd136       O138   2.477       .  S
C139        O143   1.266       .  A
C139       C1994   1.484       .  S
O144        C147   1.265       .  A
O144       Cd149   2.463       .  S
C145        O154   1.264       .  A
C145        O150   1.266       .  A
C145       C1826   1.486       .  S
O146        C152   1.265       .  A
O146       Cd149   2.467       .  S
C147        O155   1.265       .  A
C147       C2386   1.486       .  S
C148        O153   1.265       .  A
C148        O151   1.265       .  A
C148       C1705   1.485       .  S
Cd149       O156   2.466       .  S
Cd149       O155   2.468       .  S
Cd149       O154   2.444       .  S
Cd149       O150   2.477       .  S
Cd149       O153   2.467       .  S
Cd149       O151   2.450       .  S
C152        O156   1.265       .  A
C152       C1798   1.487       .  S
O157        C160   1.266       .  A
O157       Cd162   2.469       .  S
C158        O167   1.264       .  A
C158        O163   1.265       .  A
C158       C1677   1.486       .  S
O159        C165   1.265       .  A
O159       Cd162   2.469       .  S
C160        O168   1.264       .  A
C160       C1658   1.485       .  S
C161        O166   1.265       .  A
C161        O164   1.266       .  A
C161       C1593   1.481       .  S
Cd162       O169   2.446       .  S
Cd162       O168   2.458       .  S
Cd162       O167   2.466       .  S
Cd162       O163   2.480       .  S
Cd162       O166   2.446       .  S
Cd162       O164   2.461       .  S
C165        O169   1.264       .  A
C165       C1621   1.481       .  S
O170        C173   1.266       .  A
O170       Cd175   2.470       .  S
C171        O180   1.264       .  A
C171        O176   1.267       .  A
C171       C1686   1.483       .  S
O172        C178   1.267       .  A
O172       Cd175   2.471       .  S
C173        O181   1.264       .  A
C173       C1565   1.486       .  S
C174        O179   1.265       .  A
C174        O177   1.265       .  A
C174       C1509   1.487       .  S
Cd175       O182   2.440       .  S
Cd175       O181   2.465       .  S
Cd175       O180   2.451       .  S
Cd175       O176   2.481       .  S
Cd175       O179   2.473       .  S
Cd175       O177   2.461       .  S
C178        O182   1.266       .  A
C178       C1537   1.486       .  S
O183        C186   1.263       .  A
O183       Cd188   2.475       .  S
C184        O193   1.265       .  A
C184        O189   1.266       .  A
C184       C1630   1.484       .  S
O185        C191   1.266       .  A
O185       Cd188   2.457       .  S
C186        O194   1.265       .  A
C186       C1966   1.489       .  S
C187        O192   1.263       .  A
C187        O190   1.265       .  A
C187       C1649   1.486   1_554  S
Cd188       O195   2.463       .  S
Cd188       O194   2.477       .  S
Cd188       O193   2.439       .  S
Cd188       O189   2.468       .  S
Cd188       O192   2.458       .  S
Cd188       O190   2.472       .  S
C191        O195   1.265       .  A
C191       C1490   1.486       .  S
O196        C199   1.264       .  A
O196       Cd201   2.473       .  S
C197        O206   1.266       .  A
C197        O202   1.266       .  A
C197       C1481   1.487       .  S
O198        C204   1.267       .  A
O198       Cd201   2.463       .  S
C199        O207   1.264       .  A
C199       C1453   1.486       .  S
C200        O205   1.264       .  A
C200        O203   1.264       .  A
C200       C1882   1.487       .  S
Cd201       O208   2.445       .  S
Cd201       O207   2.470       .  S
Cd201       O206   2.472       .  S
Cd201       O202   2.447       .  S
Cd201       O205   2.474       .  S
Cd201       O203   2.479       .  S
C204        O208   1.264       .  A
C204       C1425   1.482       .  S
O209        C212   1.265       .  A
O209       Cd214   2.465       .  S
C210        O219   1.265       .  A
C210        O215   1.265       .  A
C210       C1406   1.486       .  S
O211        C217   1.266       .  A
O211       Cd214   2.484       .  S
C212        O220   1.266       .  A
C212       C1462   1.485       .  S
C213        O218   1.266       .  A
C213        O216   1.265       .  A
C213       C1369   1.485       .  S
Cd214       O221   2.443       .  S
Cd214       O220   2.449       .  S
Cd214       O219   2.453       .  S
Cd214       O215   2.464       .  S
Cd214       O218   2.477       .  S
Cd214       O216   2.456       .  S
C217        O221   1.264       .  A
C217       C1434   1.485       .  S
O222        C225   1.263       .  A
O222       Cd227   2.465   1_554  S
C223        O232   1.265       .  A
C223        O228   1.266       .  A
C223       C1397   1.487       .  S
O224        C230   1.266       .  A
O224       Cd227   2.465       .  S
C225        O233   1.265       .  A
C225       C1574   1.488       .  S
C226        O231   1.265       .  A
C226        O229   1.264       .  A
C226       C1341   1.486       .  S
Cd227       O234   2.449       .  S
Cd227       O233   2.482   1_556  S
Cd227       O232   2.456       .  S
Cd227       O228   2.471       .  S
Cd227       O231   2.477       .  S
Cd227       O229   2.469       .  S
C230        O234   1.264       .  A
C230       C1546   1.485       .  S
O235        C238   1.267       .  A
O235       Cd240   2.487       .  S
C236        O245   1.264       .  A
C236        O241   1.267       .  A
C236       C1294   1.485       .  S
O237        C243   1.266       .  A
O237       Cd240   2.442       .  S
C238        O246   1.264       .  A
C238       C1313   1.489       .  S
C239        O244   1.265       .  A
C239        O242   1.265       .  A
C239       C1602   1.482       .  S
Cd240       O247   2.453       .  S
Cd240       O246   2.444       .  S
Cd240       O245   2.461       .  S
Cd240       O241   2.481       .  S
Cd240       O244   2.458       .  S
Cd240       O242   2.458       .  S
C243        O247   1.266       .  A
C243       C1266   1.482       .  S
O248        C251   1.265       .  A
O248       Cd253   2.483       .  S
C249        O258   1.264       .  A
C249        O254   1.265       .  A
C249       C1238   1.484       .  S
O250        C256   1.266       .  A
O250       Cd253   2.488       .  S
C251        O259   1.263       .  A
C251       C1322   1.485       .  S
C252        O257   1.267       .  A
C252        O255   1.266       .  A
C252       C1518   1.486       .  S
Cd253       O260   2.443       .  S
Cd253       O259   2.470       .  S
Cd253       O258   2.461       .  S
Cd253       O254   2.468       .  S
Cd253       O257   2.452       .  S
Cd253       O255   2.467       .  S
C256        O260   1.263       .  A
C256       C1201   1.485       .  S
O261        C264   1.264       .  A
O261       Cd266   2.462       .  S
C262        O271   1.265       .  A
C262        O267   1.264       .  A
C262       C1145   1.487       .  S
O263        C269   1.266       .  A
O263       Cd266   2.464       .  S
C264        O272   1.266       .  A
C264       C1173   1.482       .  S
C265        O270   1.265       .  A
C265        O268   1.264       .  A
C265       C2190   1.485       .  S
Cd266       O273   2.454       .  S
Cd266       O272   2.471       .  S
Cd266       O271   2.480       .  S
Cd266       O267   2.471       .  S
Cd266       O270   2.483       .  S
Cd266       O268   2.449       .  S
C269        O273   1.267       .  A
C269       C1117   1.487       .  S
O274        C277   1.266       .  A
O274       Cd279   2.466   1_554  S
C275        O284   1.263       .  A
C275        O280   1.265       .  A
C275       C1182   1.486       .  S
O276        C282   1.264       .  A
O276       Cd279   2.471       .  S
C277        O285   1.266   1_554  A
C277       C1229   1.486       .  S
C278        O283   1.268       .  A
C278        O281   1.264       .  A
C278       C1210   1.487       .  S
Cd279       O286   2.466       .  S
Cd279       O285   2.458       .  S
Cd279       O284   2.451       .  S
Cd279       O280   2.489       .  S
Cd279       O283   2.482       .  S
Cd279       O281   2.444       .  S
C282        O286   1.264       .  A
C282       C2162   1.487       .  S
O287        C290   1.263   1_554  A
O287       Cd292   2.458       .  S
C288        O297   1.264       .  A
C288        O293   1.267       .  A
C288       C1089   1.486       .  S
O289        C295   1.265       .  A
O289       Cd292   2.470       .  S
C290        O298   1.265   1_556  A
C290       C1285   1.488       .  S
C291        O296   1.264       .  A
C291        O294   1.265       .  A
C291       C1257   1.483       .  S
Cd292       O299   2.446       .  S
Cd292       O298   2.484       .  S
Cd292       O297   2.451       .  S
Cd292       O293   2.464       .  S
Cd292       O296   2.466       .  S
Cd292       O294   2.449       .  S
C295        O299   1.264       .  A
C295       C1070   1.482       .  S
O300        C303   1.263       .  A
O300       Cd305   2.465       .  S
C301        O310   1.264       .  A
C301        O306   1.263       .  A
C301       C1098   1.486       .  S
O302        C308   1.267       .  A
O302       Cd305   2.469       .  S
C303        O311   1.265       .  A
C303       C1154   1.489       .  S
C304        O309   1.265       .  A
C304        O307   1.264       .  A
C304       C1126   1.485       .  S
Cd305       O312   2.468       .  S
Cd305       O311   2.479       .  S
Cd305       O310   2.466       .  S
Cd305       O306   2.471       .  S
Cd305       O309   2.479       .  S
Cd305       O307   2.465       .  S
C308        O312   1.266       .  A
C308       C1042   1.490       .  S
O313        C316   1.267       .  A
O313       Cd318   2.492       .  S
C314        O323   1.266       .  A
C314        O319   1.265       .  A
C314        C986   1.491   1_554  S
O315        C321   1.265       .  A
O315       Cd318   2.463       .  S
C316        O324   1.264       .  A
C316       C1005   1.489       .  S
C317        O322   1.264       .  A
C317        O320   1.265       .  A
C317       C2078   1.489       .  S
Cd318       O325   2.452       .  S
Cd318       O324   2.454       .  S
Cd318       O323   2.481       .  S
Cd318       O319   2.478       .  S
Cd318       O322   2.475       .  S
Cd318       O320   2.476       .  S
C321        O325   1.266       .  A
C321        C949   1.484       .  S
O326        C329   1.267       .  A
O326       Cd331   2.474       .  S
C327        O336   1.264       .  A
C327        O332   1.265       .  A
C327       C1014   1.488       .  S
O328        C334   1.265       .  A
O328       Cd331   2.476       .  S
C329        O337   1.265       .  A
C329        C921   1.487       .  S
C330        O335   1.265       .  A
C330        O333   1.264       .  A
C330        C893   1.487       .  S
Cd331       O338   2.475       .  S
Cd331       O337   2.460       .  S
Cd331       O336   2.465       .  S
Cd331       O332   2.474       .  S
Cd331       O335   2.485       .  S
Cd331       O333   2.462       .  S
C334        O338   1.264       .  A
C334       C2106   1.487       .  S
O339        C342   1.266       .  A
O339       Cd344   2.473       .  S
C340        O349   1.264       .  A
C340        O345   1.265       .  A
C340        C930   1.488       .  S
O341        C347   1.265       .  A
O341       Cd344   2.482       .  S
C342        O350   1.264       .  A
C342        C865   1.488       .  S
C343        O348   1.265       .  A
C343        O346   1.265       .  A
C343       C1378   1.488       .  S
Cd344       O351   2.453       .  S
Cd344       O350   2.464       .  S
Cd344       O349   2.471       .  S
Cd344       O345   2.475       .  S
Cd344       O348   2.461       .  S
Cd344       O346   2.478       .  S
C347        O351   1.265       .  A
C347        C902   1.488       .  S
O352        C355   1.263       .  A
O352       Cd357   2.448       .  S
C353        O362   1.265       .  A
C353        O358   1.266       .  A
C353        C874   1.485       .  S
O354        C360   1.264       .  A
O354       Cd357   2.475       .  S
C355        O363   1.267       .  A
C355        C818   1.487   1_556  S
C356        O361   1.265       .  A
C356        O359   1.264       .  A
C356        C837   1.486       .  S
Cd357       O364   2.475       .  S
Cd357       O363   2.485       .  S
Cd357       O362   2.461       .  S
Cd357       O358   2.466       .  S
Cd357       O361   2.484       .  S
Cd357       O359   2.436       .  S
C360        O364   1.265       .  A
C360       C1350   1.489       .  S
O365        C368   1.263       .  A
O365       Cd370   2.478       .  S
C366        O375   1.264       .  A
C366        O371   1.264       .  A
C366        C809   1.482       .  S
O367        C373   1.266       .  A
O367       Cd370   2.479       .  S
C368        O376   1.265       .  A
C368        C781   1.488       .  S
C369        O374   1.266       .  A
C369        O372   1.266       .  A
C369        C753   1.489       .  S
Cd370       O377   2.446       .  S
Cd370       O376   2.471       .  S
Cd370       O375   2.466       .  S
Cd370       O371   2.472       .  S
Cd370       O374   2.477       .  S
Cd370       O372   2.461       .  S
C373        O377   1.264       .  A
C373        C846   1.486       .  S
O378        C381   1.266       .  A
O378       Cd383   2.482       .  S
C379        O388   1.263       .  A
C379        O384   1.268       .  A
C379        C790   1.488       .  S
O380        C386   1.265       .  A
O380       Cd383   2.478       .  S
C381        O389   1.265       .  A
C381        C977   1.490       .  S
C382        O387   1.265       .  A
C382        O385   1.266       .  A
C382        C958   1.484       .  S
Cd383       O390   2.461       .  S
Cd383       O389   2.476       .  S
Cd383       O388   2.452       .  S
Cd383       O384   2.488       .  S
Cd383       O387   2.458       .  S
Cd383       O385   2.452       .  S
C386        O390   1.264       .  A
C386        C725   1.485       .  S
O391        C394   1.268       .  A
O391       Cd396   2.479       .  S
C392        O401   1.265       .  A
C392        O397   1.265       .  A
C392        C669   1.490       .  S
O393        C399   1.265       .  A
O393       Cd396   2.491       .  S
C394        O402   1.265       .  A
C394        C697   1.490       .  S
C395        O400   1.266       .  A
C395        O398   1.265       .  A
C395        C641   1.487       .  S
Cd396       O403   2.462       .  S
Cd396       O402   2.459       .  S
Cd396       O401   2.472       .  S
Cd396       O397   2.485       .  S
Cd396       O400   2.485       .  S
Cd396       O398   2.443       .  S
C399        O403   1.264       .  A
C399        C762   1.485       .  S
O404        C407   1.265       .  A
O404       Cd409   2.466       .  S
C405        O414   1.264       .  A
C405        O410   1.266       .  A
C405        C594   1.485       .  S
O406        C412   1.266       .  A
O406       Cd409   2.488       .  S
C407        O415   1.265       .  A
C407        C734   1.485       .  S
C408        O413   1.265       .  A
C408        O411   1.264       .  A
C408        C613   1.487       .  S
Cd409       O416   2.455       .  S
Cd409       O415   2.468       .  S
Cd409       O414   2.445       .  S
Cd409       O410   2.473       .  S
Cd409       O413   2.461       .  S
Cd409       O411   2.473       .  S
C412        O416   1.264       .  A
C412        C706   1.489       .  S
O417        C420   1.264   1_554  A
O417       Cd422   2.458       .  S
C418        O427   1.264       .  A
C418        O423   1.266       .  A
C418        C566   1.485       .  S
O419        C425   1.264       .  A
O419       Cd422   2.475       .  S
C420        O428   1.265   1_556  A
C420        C622   1.487       .  S
C421        O426   1.266       .  A
C421        O424   1.266       .  A
C421       C1061   1.485       .  S
Cd422       O429   2.451       .  S
Cd422       O428   2.470       .  S
Cd422       O427   2.457       .  S
Cd422       O423   2.486       .  S
Cd422       O426   2.459       .  S
Cd422       O424   2.455       .  S
C425        O429   1.264       .  A
C425        C585   1.485       .  S
O430        C433   1.266       .  A
O430       Cd435   2.470       .  S
C431        O440   1.266       .  A
C431        O436   1.263       .  A
C431        C529   1.488       .  S
O432        C438   1.265       .  A
O432       Cd435   2.484       .  S
C433        O441   1.264       .  A
C433        C557   1.488       .  S
C434        O439   1.267       .  A
C434        O437   1.263       .  A
C434        C501   1.486       .  S
Cd435       O442   2.465       .  S
Cd435       O441   2.469       .  S
Cd435       O440   2.485       .  S
Cd435       O436   2.461       .  S
Cd435       O439   2.484       .  S
Cd435       O437   2.440       .  S
C438        O442   1.265       .  A
C438       C1033   1.489       .  S
O443        C446   1.265       .  A
O443       Cd448   2.481       .  S
C444        O453   1.263       .  A
C444        O449   1.266       .  A
C444        C538   1.486       .  S
O445        C451   1.265       .  A
O445       Cd448   2.470       .  S
C446        O454   1.265       .  A
C446        C473   1.490       .  S
C447        O452   1.266       .  A
C447        O450   1.265       .  A
C447        C510   1.485       .  S
Cd448       O455   2.469       .  S
Cd448       O454   2.470       .  S
Cd448       O453   2.461       .  S
Cd448       O449   2.485       .  S
Cd448       O452   2.472       .  S
Cd448       O450   2.442       .  S
C451        O455   1.265       .  A
C451       C1742   1.487       .  S
O456        C459   1.264       .  A
O456       Cd461   2.467   1_554  S
C457        O466   1.266       .  A
C457        O462   1.266       .  A
C457        C482   1.488       .  S
O458        C464   1.267       .  A
O458       Cd461   2.487       .  S
C459        O467   1.265   1_554  A
C459        C678   1.489       .  S
C460        O465   1.265       .  A
C460        O463   1.264       .  A
C460       C1770   1.488       .  S
Cd461       O468   2.447       .  S
Cd461       O467   2.487       .  S
Cd461       O466   2.464       .  S
Cd461       O462   2.472       .  S
Cd461       O465   2.485       .  S
Cd461       O463   2.470       .  S
C464        O468   1.264       .  A
C464        C650   1.488       .  S
C469        C470   1.402       .  A
C469        C474   1.403       .  A
C469        H479   1.083       .  S
C470        C475   1.483       .  S
C470        C471   1.409       .  A
C471        C472   1.403       .  A
C471        N476   1.434       .  S
C472        C473   1.408       .  A
C472        H477   1.082       .  S
C473        C474   1.417       .  A
C474        N478   1.431       .  S
C475        C480   1.406       .  A
C475        C484   1.402       .  A
N476        O491   1.262       .  A
N476        O492   1.263       .  A
N478        O489   1.262       .  A
N478        O490   1.262       .  A
C480        C481   1.401       .  A
C480        N485   1.430       .  S
C481        C482   1.408       .  A
C481        H486   1.082       .  S
C482        C483   1.416       .  A
C483        C484   1.402       .  A
C483        N487   1.429       .  S
C484        H488   1.083       .  S
N485        O495   1.262       .  A
N485        O496   1.262       .  A
N487        O493   1.262       .  A
N487        O494   1.262   1_556  A
C497        C498   1.401   1_565  A
C497        C502   1.398   1_565  A
C497        H507   1.086       .  S
C498        C503   1.481   1_544  S
C498        C499   1.412       .  A
C499        C500   1.405       .  A
C499        N504   1.437   1_554  S
C500        C501   1.407       .  A
C500        H505   1.085       .  S
C501        C502   1.416       .  A
C502        N506   1.432       .  S
C503        C508   1.411       .  A
C503        C512   1.402       .  A
N504        O519   1.262       .  A
N504        O520   1.263       .  A
N506        O517   1.262   1_545  A
N506        O518   1.262       .  A
C508        C509   1.399       .  A
C508        N513   1.436       .  S
C509        C510   1.406       .  A
C509        H514   1.085       .  S
C510        C511   1.415       .  A
C511        C512   1.402       .  A
C511        N515   1.430       .  S
C512        H516   1.085       .  S
N513        O523   1.262       .  A
N513        O524   1.263   1_565  A
N515        O521   1.262       .  A
N515        O522   1.262       .  A
C525        C526   1.402       .  A
C525        C530   1.399       .  A
C525        H535   1.085       .  S
C526        C531   1.486   1_545  S
C526        C527   1.412       .  A
C527        C528   1.405       .  A
C527        N532   1.435       .  S
C528        C529   1.407       .  A
C528        H533   1.084       .  S
C529        C530   1.415       .  A
C530        N534   1.429       .  S
C531        C536   1.412       .  A
C531        C540   1.402       .  A
N532        O547   1.262       .  A
N532        O548   1.262   1_545  A
N534        O545   1.262       .  A
N534        O546   1.262       .  A
C536        C537   1.404       .  A
C536        N541   1.436       .  S
C537        C538   1.405       .  A
C537        H542   1.085       .  S
C538        C539   1.417       .  A
C539        C540   1.402       .  A
C539        N543   1.434       .  S
C540        H544   1.085   1_565  S
N541        O551   1.262       .  A
N541        O552   1.263       .  A
N543        O549   1.263       .  A
N543        O550   1.262   1_565  A
C553        C554   1.402       .  A
C553        C558   1.402       .  A
C553        H563   1.086       .  S
C554        C559   1.485       .  S
C554        C555   1.411       .  A
C555        C556   1.402       .  A
C555        N560   1.434       .  S
C556        C557   1.406       .  A
C556        H561   1.086       .  S
C557        C558   1.416       .  A
C558        N562   1.430       .  S
C559        C564   1.413       .  A
C559        C568   1.402       .  A
N560        O575   1.262       .  A
N560        O576   1.262       .  A
N562        O573   1.262       .  A
N562        O574   1.262       .  A
C564        C565   1.406       .  A
C564        N569   1.437       .  S
C565        C566   1.406       .  A
C565        H570   1.086       .  S
C566        C567   1.415       .  A
C567        C568   1.401       .  A
C567        N571   1.435       .  S
C568        H572   1.087       .  S
N569        O579   1.262       .  A
N569        O580   1.263       .  A
N571        O577   1.263       .  A
N571        O578   1.262       .  A
C581        C582   1.402       .  A
C581        C586   1.401       .  A
C581        H591   1.088       .  S
C582        C587   1.482       .  S
C582        C583   1.411       .  A
C583        C584   1.400       .  A
C583        N588   1.435       .  S
C584        C585   1.406       .  A
C584        H589   1.087       .  S
C585        C586   1.415       .  A
C586        N590   1.430       .  S
C587        C592   1.411       .  A
C587        C596   1.401       .  A
N588        O603   1.262       .  A
N588        O604   1.263       .  A
N590        O601   1.262       .  A
N590        O602   1.262       .  A
C592        C593   1.404       .  A
C592        N597   1.435       .  S
C593        C594   1.407       .  A
C593        H598   1.086       .  S
C594        C595   1.416       .  A
C595        C596   1.398       .  A
C595        N599   1.432       .  S
C596        H600   1.087       .  S
N597        O607   1.262       .  A
N597        O608   1.263       .  A
N599        O605   1.262       .  A
N599        O606   1.262       .  A
C609        C610   1.402       .  A
C609        C614   1.403       .  A
C609        H619   1.085       .  S
C610        C615   1.482       .  S
C610        C611   1.410       .  A
C611        C612   1.401       .  A
C611        N616   1.435       .  S
C612        C613   1.406       .  A
C612        H617   1.085       .  S
C613        C614   1.417       .  A
C614        N618   1.431       .  S
C615        C620   1.410       .  A
C615        C624   1.402       .  A
N616        O631   1.262       .  A
N616        O632   1.263       .  A
N618        O629   1.262       .  A
N618        O630   1.262       .  A
C620        C621   1.404       .  A
C620        N625   1.435       .  S
C621        C622   1.408       .  A
C621        H626   1.085       .  S
C622        C623   1.416       .  A
C623        C624   1.400       .  A
C623        N627   1.433       .  S
C624        H628   1.085       .  S
N625        O635   1.262       .  A
N625        O636   1.262       .  A
N627        O633   1.262       .  A
N627        O634   1.262       .  A
C637        C638   1.403       .  A
C637        C642   1.403       .  A
C637        H647   1.086       .  S
C638        C643   1.485       .  S
C638        C639   1.412       .  A
C639        C640   1.400       .  A
C639        N644   1.436       .  S
C640        C641   1.406       .  A
C640        H645   1.085       .  S
C641        C642   1.415       .  A
C642        N646   1.429       .  S
C643        C648   1.412       .  A
C643        C652   1.401       .  A
N644        O659   1.262       .  A
N644        O660   1.262       .  A
N646        O657   1.262       .  A
N646        O658   1.262       .  A
C648        C649   1.406       .  A
C648        N653   1.435       .  S
C649        C650   1.408       .  A
C649        H654   1.085       .  S
C650        C651   1.415       .  A
C651        C652   1.397       .  A
C651        N655   1.429       .  S
C652        H656   1.086       .  S
N653        O663   1.262       .  A
N653        O664   1.263       .  A
N655        O661   1.262       .  A
N655        O662   1.262       .  A
C665        C666   1.404       .  A
C665        C670   1.401       .  A
C665        H675   1.087       .  S
C666        C671   1.489       .  S
C666        C667   1.413       .  A
C667        C668   1.404       .  A
C667        N672   1.435       .  S
C668        C669   1.407       .  A
C668        H673   1.086       .  S
C669        C670   1.414       .  A
C670        N674   1.429       .  S
C671        C676   1.413       .  A
C671        C680   1.404       .  A
N672        O687   1.262       .  A
N672        O688   1.263       .  A
N674        O685   1.262       .  A
N674        O686   1.262       .  A
C676        C677   1.404       .  A
C676        N681   1.436       .  S
C677        C678   1.406       .  A
C677        H682   1.086       .  S
C678        C679   1.415       .  A
C679        C680   1.402       .  A
C679        N683   1.430       .  S
C680        H684   1.087       .  S
N681        O691   1.262       .  A
N681        O692   1.263       .  A
N683        O689   1.262       .  A
N683        O690   1.262       .  A
C693        C694   1.402       .  A
C693        C698   1.402       .  A
C693        H703   1.085       .  S
C694        C699   1.488   1_565  S
C694        C695   1.412       .  A
C695        C696   1.404       .  A
C695        N700   1.435       .  S
C696        C697   1.407       .  A
C696        H701   1.085       .  S
C697        C698   1.417       .  A
C698        N702   1.431       .  S
C699        C704   1.412       .  A
C699        C708   1.402       .  A
N700        O715   1.262       .  A
N700        O716   1.263   1_565  A
N702        O713   1.262       .  A
N702        O714   1.262       .  A
C704        C705   1.405       .  A
C704        N709   1.434       .  S
C705        C706   1.407       .  A
C705        H710   1.085       .  S
C706        C707   1.416       .  A
C707        C708   1.399       .  A
C707        N711   1.430       .  S
C708        H712   1.085       .  S
N709        O719   1.262       .  A
N709        O720   1.262   1_545  A
N711        O717   1.262       .  A
N711        O718   1.262       .  A
C721        C722   1.401       .  A
C721        C726   1.400       .  A
C721        H731   1.084       .  S
C722        C727   1.483       .  S
C722        C723   1.414       .  A
C723        C724   1.405       .  A
C723        N728   1.438       .  S
C724        C725   1.406       .  A
C724        H729   1.084       .  S
C725        C726   1.415       .  A
C726        N730   1.432       .  S
C727        C732   1.414       .  A
C727        C736   1.402       .  A
N728        O743   1.263       .  A
N728        O744   1.263       .  A
N730        O741   1.262       .  A
N730        O742   1.262       .  A
C732        C733   1.404       .  A
C732        N737   1.438       .  S
C733        C734   1.406       .  A
C733        H738   1.085       .  S
C734        C735   1.413       .  A
C735        C736   1.400       .  A
C735        N739   1.431       .  S
C736        H740   1.085       .  S
N737        O747   1.263       .  A
N737        O748   1.263       .  A
N739        O745   1.262       .  A
N739        O746   1.262       .  A
C749        C750   1.403       .  A
C749        C754   1.401       .  A
C749        H759   1.087       .  S
C750        C755   1.488       .  S
C750        C751   1.413       .  A
C751        C752   1.403       .  A
C751        N756   1.436       .  S
C752        C753   1.406       .  A
C752        H757   1.086       .  S
C753        C754   1.415       .  A
C754        N758   1.429       .  S
C755        C760   1.414       .  A
C755        C764   1.403       .  A
N756        O771   1.263       .  A
N756        O772   1.263       .  A
N758        O769   1.262       .  A
N758        O770   1.262       .  A
C760        C761   1.407       .  A
C760        N765   1.437       .  S
C761        C762   1.406       .  A
C761        H766   1.086       .  S
C762        C763   1.414       .  A
C763        C764   1.399       .  A
C763        N767   1.432       .  S
C764        H768   1.087       .  S
N765        O775   1.262       .  A
N765        O776   1.263       .  A
N767        O773   1.262       .  A
N767        O774   1.262       .  A
C777        C778   1.404       .  A
C777        C782   1.401       .  A
C777        H787   1.086       .  S
C778        C783   1.491   1_565  S
C778        C779   1.416       .  A
C779        C780   1.402       .  A
C779        N784   1.436       .  S
C780        C781   1.405       .  A
C780        H785   1.086       .  S
C781        C782   1.414       .  A
C782        N786   1.429       .  S
C783        C788   1.416       .  A
C783        C792   1.403       .  A
N784        O799   1.263       .  A
N784        O800   1.262       .  A
N786        O797   1.262       .  A
N786        O798   1.262       .  A
C788        C789   1.405       .  A
C788        N793   1.435   1_545  S
C789        C790   1.405       .  A
C789        H794   1.086       .  S
C790        C791   1.415       .  A
C791        C792   1.399       .  A
C791        N795   1.429       .  S
C792        H796   1.087       .  S
N793        O803   1.262       .  A
N793        O804   1.262       .  A
N795        O801   1.262       .  A
N795        O802   1.262       .  A
C805        C806   1.403       .  A
C805        C810   1.402       .  A
C805        H815   1.087       .  S
C806        C811   1.486       .  S
C806        C807   1.413       .  A
C807        C808   1.402       .  A
C807        N812   1.436       .  S
C808        C809   1.404       .  A
C808        H813   1.087       .  S
C809        C810   1.415       .  A
C810        N814   1.435       .  S
C811        C816   1.414       .  A
C811        C820   1.402       .  A
N812        O827   1.262       .  A
N812        O828   1.263       .  A
N814        O825   1.262       .  A
N814        O826   1.263       .  A
C816        C817   1.404       .  A
C816        N821   1.436       .  S
C817        C818   1.406       .  A
C817        H822   1.087       .  S
C818        C819   1.416       .  A
C819        C820   1.399       .  A
C819        N823   1.431       .  S
C820        H824   1.088       .  S
N821        O831   1.262       .  A
N821        O832   1.263       .  A
N823        O829   1.262   1_554  A
N823        O830   1.262       .  A
C833        C834   1.401       .  A
C833        C838   1.405       .  A
C833        H843   1.087       .  S
C834        C839   1.479       .  S
C834        C835   1.408       .  A
C835        C836   1.397       .  A
C835        N840   1.434       .  S
C836        C837   1.406       .  A
C836        H841   1.087       .  S
C837        C838   1.418       .  A
C838        N842   1.432       .  S
C839        C844   1.411       .  A
C839        C848   1.400       .  A
N840        O855   1.262       .  A
N840        O856   1.262       .  A
N842        O853   1.262       .  A
N842        O854   1.262       .  A
C844        C845   1.405       .  A
C844        N849   1.437       .  S
C845        C846   1.408       .  A
C845        H850   1.087       .  S
C846        C847   1.416       .  A
C847        C848   1.399       .  A
C847        N851   1.434       .  S
C848        H852   1.088       .  S
N849        O859   1.262       .  A
N849        O860   1.263       .  A
N851        O857   1.262       .  A
N851        O858   1.262       .  A
C861        C862   1.400       .  A
C861        C866   1.399       .  A
C861        H871   1.085       .  S
C862        C867   1.481       .  S
C862        C863   1.413       .  A
C863        C864   1.404       .  A
C863        N868   1.438       .  S
C864        C865   1.407       .  A
C864        H869   1.085       .  S
C865        C866   1.415       .  A
C866        N870   1.429       .  S
C867        C872   1.413       .  A
C867        C876   1.401       .  A
N868        O883   1.263       .  A
N868        O884   1.263       .  A
N870        O881   1.262       .  A
N870        O882   1.262       .  A
C872        C873   1.403       .  A
C872        N877   1.438       .  S
C873        C874   1.406       .  A
C873        H878   1.084       .  S
C874        C875   1.416       .  A
C875        C876   1.402       .  A
C875        N879   1.433       .  S
C876        H880   1.085       .  S
N877        O887   1.263       .  A
N877        O888   1.262       .  A
N879        O885   1.262   1_556  A
N879        O886   1.263       .  A
C889        C890   1.402   1_545  A
C889        C894   1.400       .  A
C889        H899   1.087   1_554  S
C890        C895   1.486       .  S
C890        C891   1.412       .  A
C891        C892   1.405   1_565  A
C891        N896   1.435       .  S
C892        C893   1.408       .  A
C892        H897   1.086       .  S
C893        C894   1.415       .  A
C894        N898   1.434       .  S
C895        C900   1.412   1_554  A
C895        C904   1.403   1_554  A
N896        O911   1.262       .  A
N896        O912   1.263       .  A
N898        O909   1.262       .  A
N898        O910   1.262       .  A
C900        C901   1.400       .  A
C900        N905   1.436       .  S
C901        C902   1.405       .  A
C901        H906   1.086       .  S
C902        C903   1.416       .  A
C903        C904   1.403       .  A
C903        N907   1.429       .  S
C904        H908   1.087   1_556  S
N905        O915   1.262       .  A
N905        O916   1.263   1_556  A
N907        O913   1.262       .  A
N907        O914   1.262       .  A
C917        C918   1.402   1_545  A
C917        C922   1.400       .  A
C917        H927   1.085   1_545  S
C918        C923   1.486       .  S
C918        C919   1.416   1_565  A
C919        C920   1.405       .  A
C919        N924   1.439       .  S
C920        C921   1.406       .  A
C920        H925   1.085       .  S
C921        C922   1.415       .  A
C922        N926   1.430       .  S
C923        C928   1.415       .  A
C923        C932   1.402       .  A
N924        O939   1.263       .  A
N924        O940   1.263       .  A
N926        O937   1.262       .  A
N926        O938   1.262       .  A
C928        C929   1.405       .  A
C928        N933   1.439       .  S
C929        C930   1.406       .  A
C929        H934   1.085       .  S
C930        C931   1.415       .  A
C931        C932   1.401       .  A
C931        N935   1.431       .  S
C932        H936   1.085       .  S
N933        O943   1.263       .  A
N933        O944   1.263       .  A
N935        O941   1.262       .  A
N935        O942   1.262       .  A
C945        C946   1.401       .  A
C945        C950   1.401       .  A
C945        H955   1.085       .  S
C946        C951   1.479       .  S
C946        C947   1.410       .  A
C947        C948   1.400       .  A
C947        N952   1.435       .  S
C948        C949   1.406       .  A
C948        H953   1.084       .  S
C949        C950   1.415       .  A
C950        N954   1.430       .  S
C951        C956   1.410       .  A
C951        C960   1.401       .  A
N952        O967   1.262       .  A
N952        O968   1.263       .  A
N954        O965   1.262       .  A
N954        O966   1.262       .  A
C956        C957   1.401       .  A
C956        N961   1.435       .  S
C957        C958   1.406       .  A
C957        H962   1.084       .  S
C958        C959   1.415       .  A
C959        C960   1.399       .  A
C959        N963   1.430       .  S
C960        H964   1.085       .  S
N961        O971   1.262       .  A
N961        O972   1.263       .  A
N963        O969   1.262       .  A
N963        O970   1.262       .  A
C973        C974   1.402       .  A
C973        C978   1.404       .  A
C973        H983   1.085       .  S
C974        C979   1.484       .  S
C974        C975   1.412       .  A
C975        C976   1.404       .  A
C975        N980   1.436       .  S
C976        C977   1.407       .  A
C976        H981   1.084       .  S
C977        C978   1.416       .  A
C978        N982   1.432       .  S
C979        C984   1.412       .  A
C979        C988   1.401       .  A
N980        O995   1.263       .  A
N980        O996   1.262       .  A
N982        O993   1.262       .  A
N982        O994   1.262       .  A
C984        C985   1.406       .  A
C984        N989   1.436       .  S
C985        C986   1.408       .  A
C985        H990   1.084       .  S
C986        C987   1.415       .  A
C987        C988   1.402       .  A
C987        N991   1.429       .  S
C988        H992   1.085       .  S
N989        O999   1.263       .  A
N989       O1000   1.262       .  A
N991        O997   1.262       .  A
N991        O998   1.262       .  A
C1001      C1002   1.405       .  A
C1001      C1006   1.401       .  A
C1001      H1011   1.088       .  S
C1002      C1007   1.491       .  S
C1002      C1003   1.415       .  A
C1003      C1004   1.404       .  A
C1003      N1008   1.438       .  S
C1004      C1005   1.407       .  A
C1004      H1009   1.087       .  S
C1005      C1006   1.413       .  A
C1006      N1010   1.429       .  S
C1007      C1012   1.415       .  A
C1007      C1016   1.404       .  A
N1008      O1023   1.263       .  A
N1008      O1024   1.263       .  A
N1010      O1021   1.262       .  A
N1010      O1022   1.262       .  A
C1012      C1013   1.405       .  A
C1012      N1017   1.437       .  S
C1013      C1014   1.406       .  A
C1013      H1018   1.086       .  S
C1014      C1015   1.415       .  A
C1015      C1016   1.400       .  A
C1015      N1019   1.430       .  S
C1016      H1020   1.087       .  S
N1017      O1027   1.263       .  A
N1017      O1028   1.263       .  A
N1019      O1025   1.262       .  A
N1019      O1026   1.262       .  A
C1029      C1030   1.404       .  A
C1029      C1034   1.404       .  A
C1029      H1039   1.086       .  S
C1030      C1035   1.489       .  S
C1030      C1031   1.414       .  A
C1031      C1032   1.403       .  A
C1031      N1036   1.437       .  S
C1032      C1033   1.406       .  A
C1032      H1037   1.085       .  S
C1033      C1034   1.415       .  A
C1034      N1038   1.431       .  S
C1035      C1040   1.414       .  A
C1035      C1044   1.403       .  A
N1036      O1051   1.262       .  A
N1036      O1052   1.263       .  A
N1038      O1049   1.262       .  A
N1038      O1050   1.262       .  A
C1040      C1041   1.405       .  A
C1040      N1045   1.436       .  S
C1041      C1042   1.407       .  A
C1041      H1046   1.085       .  S
C1042      C1043   1.415       .  A
C1043      C1044   1.401       .  A
C1043      N1047   1.430       .  S
C1044      H1048   1.086       .  S
N1045      O1055   1.262       .  A
N1045      O1056   1.262       .  A
N1047      O1053   1.262       .  A
N1047      O1054   1.262       .  A
C1057      C1058   1.401       .  A
C1057      C1062   1.397       .  A
C1057      H1067   1.086   1_554  S
C1058      C1063   1.482       .  S
C1058      C1059   1.415       .  A
C1059      C1060   1.404       .  A
C1059      N1064   1.439       .  S
C1060      C1061   1.407       .  A
C1060      H1065   1.085       .  S
C1061      C1062   1.413       .  A
C1062      N1066   1.429   1_554  S
C1063      C1068   1.415       .  A
C1063      C1072   1.401       .  A
N1064      O1079   1.263       .  A
N1064      O1080   1.263       .  A
N1066      O1077   1.262       .  A
N1066      O1078   1.262       .  A
C1068      C1069   1.405       .  A
C1068      N1073   1.439       .  S
C1069      C1070   1.406       .  A
C1069      H1074   1.085       .  S
C1070      C1071   1.412       .  A
C1071      C1072   1.396       .  A
C1071      N1075   1.429       .  S
C1072      H1076   1.086       .  S
N1073      O1083   1.262       .  A
N1073      O1084   1.263       .  A
N1075      O1081   1.262       .  A
N1075      O1082   1.262       .  A
C1085      C1086   1.400       .  A
C1085      C1090   1.401       .  A
C1085      H1095   1.085       .  S
C1086      C1091   1.477       .  S
C1086      C1087   1.405       .  A
C1087      C1088   1.399       .  A
C1087      N1092   1.429       .  S
C1088      C1089   1.407       .  A
C1088      H1093   1.084       .  S
C1089      C1090   1.418       .  A
C1090      N1094   1.430       .  S
C1091      C1096   1.408       .  A
C1091      C1100   1.400       .  A
N1092      O1107   1.262       .  A
N1092      O1108   1.262       .  A
N1094      O1105   1.262       .  A
N1094      O1106   1.262       .  A
C1096      C1097   1.401       .  A
C1096      N1101   1.435       .  S
C1097      C1098   1.407       .  A
C1097      H1102   1.084       .  S
C1098      C1099   1.416       .  A
C1099      C1100   1.401       .  A
C1099      N1103   1.431       .  S
C1100      H1104   1.085       .  S
N1101      O1111   1.262       .  A
N1101      O1112   1.262       .  A
N1103      O1109   1.262       .  A
N1103      O1110   1.262       .  A
C1113      C1114   1.400       .  A
C1113      C1118   1.402       .  A
C1113      H1123   1.084       .  S
C1114      C1119   1.480   1_556  S
C1114      C1115   1.412       .  A
C1115      C1116   1.402       .  A
C1115      N1120   1.437       .  S
C1116      C1117   1.407       .  A
C1116      H1121   1.083       .  S
C1117      C1118   1.416       .  A
C1118      N1122   1.430       .  S
C1119      C1124   1.411       .  A
C1119      C1128   1.401       .  A
N1120      O1135   1.262       .  A
N1120      O1136   1.263       .  A
N1122      O1133   1.262       .  A
N1122      O1134   1.262       .  A
C1124      C1125   1.403       .  A
C1124      N1129   1.437       .  S
C1125      C1126   1.406       .  A
C1125      H1130   1.083       .  S
C1126      C1127   1.415       .  A
C1127      C1128   1.403       .  A
C1127      N1131   1.433       .  S
C1128      H1132   1.083   1_554  S
N1129      O1139   1.263       .  A
N1129      O1140   1.262       .  A
N1131      O1137   1.262       .  A
N1131      O1138   1.263       .  A
C1141      C1142   1.402       .  A
C1141      C1146   1.402       .  A
C1141      H1151   1.085       .  S
C1142      C1147   1.483       .  S
C1142      C1143   1.413       .  A
C1143      C1144   1.404       .  A
C1143      N1148   1.438       .  S
C1144      C1145   1.406       .  A
C1144      H1149   1.084       .  S
C1145      C1146   1.414       .  A
C1146      N1150   1.431       .  S
C1147      C1152   1.413       .  A
C1147      C1156   1.401       .  A
N1148      O1163   1.263       .  A
N1148      O1164   1.262       .  A
N1150      O1161   1.262       .  A
N1150      O1162   1.262       .  A
C1152      C1153   1.405       .  A
C1152      N1157   1.438       .  S
C1153      C1154   1.407       .  A
C1153      H1158   1.084       .  S
C1154      C1155   1.415       .  A
C1155      C1156   1.400       .  A
C1155      N1159   1.429       .  S
C1156      H1160   1.084       .  S
N1157      O1167   1.263       .  A
N1157      O1168   1.263       .  A
N1159      O1165   1.262       .  A
N1159      O1166   1.262       .  A
C1169      C1170   1.404       .  A
C1169      C1174   1.401       .  A
C1169      H1179   1.088       .  S
C1170      C1175   1.487       .  S
C1170      C1171   1.413       .  A
C1171      C1172   1.403       .  A
C1171      N1176   1.436       .  S
C1172      C1173   1.406       .  A
C1172      H1177   1.087       .  S
C1173      C1174   1.414       .  A
C1174      N1178   1.433       .  S
C1175      C1180   1.412       .  A
C1175      C1184   1.404       .  A
N1176      O1191   1.262       .  A
N1176      O1192   1.263       .  A
N1178      O1189   1.262       .  A
N1178      O1190   1.263       .  A
C1180      C1181   1.401       .  A
C1180      N1185   1.436       .  S
C1181      C1182   1.406       .  A
C1181      H1186   1.086       .  S
C1182      C1183   1.414       .  A
C1183      C1184   1.402       .  A
C1183      N1187   1.430       .  S
C1184      H1188   1.087       .  S
N1185      O1195   1.262       .  A
N1185      O1196   1.263       .  A
N1187      O1193   1.262       .  A
N1187      O1194   1.262   1_556  A
C1197      C1198   1.400       .  A
C1197      C1202   1.398       .  A
C1197      H1207   1.084       .  S
C1198      C1203   1.480       .  S
C1198      C1199   1.413       .  A
C1199      C1200   1.406       .  A
C1199      N1204   1.438       .  S
C1200      C1201   1.407       .  A
C1200      H1205   1.084       .  S
C1201      C1202   1.415       .  A
C1202      N1206   1.432       .  S
C1203      C1208   1.411       .  A
C1203      C1212   1.399       .  A
N1204      O1219   1.263       .  A
N1204      O1220   1.262       .  A
N1206      O1217   1.262       .  A
N1206      O1218   1.262       .  A
C1208      C1209   1.405       .  A
C1208      N1213   1.435       .  S
C1209      C1210   1.408       .  A
C1209      H1214   1.084       .  S
C1210      C1211   1.416       .  A
C1211      C1212   1.398       .  A
C1211      N1215   1.429       .  S
C1212      H1216   1.085       .  S
N1213      O1223   1.262       .  A
N1213      O1224   1.262       .  A
N1215      O1221   1.262       .  A
N1215      O1222   1.262       .  A
C1225      C1226   1.399       .  A
C1225      C1230   1.401       .  A
C1225      H1235   1.085       .  S
C1226      C1231   1.476       .  S
C1226      C1227   1.405       .  A
C1227      C1228   1.399       .  A
C1227      N1232   1.429       .  S
C1228      C1229   1.407       .  A
C1228      H1233   1.085       .  S
C1229      C1230   1.416       .  A
C1230      N1234   1.429       .  S
C1231      C1236   1.409       .  A
C1231      C1240   1.400       .  A
N1232      O1247   1.262       .  A
N1232      O1248   1.262       .  A
N1234      O1245   1.262       .  A
N1234      O1246   1.262       .  A
C1236      C1237   1.402       .  A
C1236      N1241   1.436       .  S
C1237      C1238   1.407       .  A
C1237      H1242   1.085       .  S
C1238      C1239   1.415       .  A
C1239      C1240   1.401       .  A
C1239      N1243   1.432       .  S
C1240      H1244   1.086       .  S
N1241      O1251   1.262       .  A
N1241      O1252   1.262       .  A
N1243      O1249   1.262       .  A
N1243      O1250   1.262       .  A
C1253      C1254   1.399       .  A
C1253      C1258   1.400       .  A
C1253      H1263   1.085       .  S
C1254      C1259   1.475       .  S
C1254      C1255   1.409       .  A
C1255      C1256   1.399       .  A
C1255      N1260   1.435       .  S
C1256      C1257   1.406       .  A
C1256      H1261   1.085       .  S
C1257      C1258   1.415       .  A
C1258      N1262   1.429       .  S
C1259      C1264   1.411       .  A
C1259      C1268   1.400       .  A
N1260      O1275   1.262       .  A
N1260      O1276   1.262       .  A
N1262      O1273   1.262       .  A
N1262      O1274   1.262       .  A
C1264      C1265   1.401       .  A
C1264      N1269   1.438       .  S
C1265      C1266   1.406       .  A
C1265      H1270   1.084       .  S
C1266      C1267   1.415       .  A
C1267      C1268   1.400       .  A
C1267      N1271   1.430       .  S
C1268      H1272   1.085       .  S
N1269      O1279   1.263       .  A
N1269      O1280   1.263       .  A
N1271      O1277   1.262       .  A
N1271      O1278   1.262       .  A
C1281      C1282   1.399       .  A
C1281      C1286   1.401       .  A
C1281      H1291   1.085       .  S
C1282      C1287   1.479       .  S
C1282      C1283   1.408       .  A
C1283      C1284   1.402       .  A
C1283      N1288   1.431       .  S
C1284      C1285   1.407       .  A
C1284      H1289   1.085       .  S
C1285      C1286   1.417       .  A
C1286      N1290   1.432       .  S
C1287      C1292   1.410       .  A
C1287      C1296   1.400       .  A
N1288      O1303   1.262       .  A
N1288      O1304   1.262       .  A
N1290      O1301   1.262       .  A
N1290      O1302   1.262       .  A
C1292      C1293   1.404       .  A
C1292      N1297   1.436       .  S
C1293      C1294   1.408       .  A
C1293      H1298   1.085       .  S
C1294      C1295   1.414       .  A
C1295      C1296   1.401       .  A
C1295      N1299   1.432       .  S
C1296      H1300   1.085       .  S
N1297      O1307   1.263       .  A
N1297      O1308   1.262       .  A
N1299      O1305   1.262       .  A
N1299      O1306   1.262       .  A
C1309      C1310   1.404       .  A
C1309      C1314   1.403       .  A
C1309      H1319   1.086       .  S
C1310      C1315   1.487       .  S
C1310      C1311   1.413       .  A
C1311      C1312   1.402       .  A
C1311      N1316   1.438       .  S
C1312      C1313   1.407       .  A
C1312      H1317   1.085       .  S
C1313      C1314   1.415       .  A
C1314      N1318   1.431       .  S
C1315      C1320   1.413       .  A
C1315      C1324   1.403       .  A
N1316      O1331   1.263       .  A
N1316      O1332   1.263       .  A
N1318      O1329   1.262       .  A
N1318      O1330   1.262       .  A
C1320      C1321   1.405       .  A
C1320      N1325   1.435       .  S
C1321      C1322   1.406       .  A
C1321      H1326   1.085       .  S
C1322      C1323   1.413       .  A
C1323      C1324   1.399       .  A
C1323      N1327   1.430       .  S
C1324      H1328   1.086       .  S
N1325      O1335   1.262       .  A
N1325      O1336   1.262       .  A
N1327      O1333   1.262       .  A
N1327      O1334   1.262       .  A
C1337      C1338   1.403       .  A
C1337      C1342   1.400       .  A
C1337      H1347   1.086       .  S
C1338      C1343   1.489       .  S
C1338      C1339   1.414       .  A
C1339      C1340   1.406       .  A
C1339      N1344   1.437       .  S
C1340      C1341   1.406       .  A
C1340      H1345   1.085       .  S
C1341      C1342   1.414       .  A
C1342      N1346   1.432       .  S
C1343      C1348   1.414       .  A
C1343      C1352   1.403       .  A
N1344      O1359   1.263       .  A
N1344      O1360   1.263       .  A
N1346      O1357   1.262   1_556  A
N1346      O1358   1.262       .  A
C1348      C1349   1.404       .  A
C1348      N1353   1.437   1_556  S
C1349      C1350   1.406       .  A
C1349      H1354   1.086   1_556  S
C1350      C1351   1.415       .  A
C1351      C1352   1.401       .  A
C1351      N1355   1.429       .  S
C1352      H1356   1.086       .  S
N1353      O1363   1.262       .  A
N1353      O1364   1.263       .  A
N1355      O1361   1.262       .  A
N1355      O1362   1.262       .  A
C1365      C1366   1.405       .  A
C1365      C1370   1.403       .  A
C1365      H1375   1.088       .  S
C1366      C1371   1.490       .  S
C1366      C1367   1.415       .  A
C1367      C1368   1.402       .  A
C1367      N1372   1.436       .  S
C1368      C1369   1.405       .  A
C1368      H1373   1.088       .  S
C1369      C1370   1.414       .  A
C1370      N1374   1.434       .  S
C1371      C1376   1.415       .  A
C1371      C1380   1.404       .  A
N1372      O1387   1.263       .  A
N1372      O1388   1.262       .  A
N1374      O1385   1.262       .  A
N1374      O1386   1.262       .  A
C1376      C1377   1.402       .  A
C1376      N1381   1.437       .  S
C1377      C1378   1.405       .  A
C1377      H1382   1.088       .  S
C1378      C1379   1.416       .  A
C1379      C1380   1.402       .  A
C1379      N1383   1.432       .  S
C1380      H1384   1.089       .  S
N1381      O1391   1.263       .  A
N1381      O1392   1.263       .  A
N1383      O1389   1.262       .  A
N1383      O1390   1.262       .  A
C1393      C1394   1.405       .  A
C1393      C1398   1.402       .  A
C1393      H1403   1.081       .  S
C1394      C1399   1.489       .  S
C1394      C1395   1.414       .  A
C1395      C1396   1.403       .  A
C1395      N1400   1.437       .  S
C1396      C1397   1.406       .  A
C1396      H1401   1.080       .  S
C1397      C1398   1.415       .  A
C1398      N1402   1.432       .  S
C1399      C1404   1.414       .  A
C1399      C1408   1.405       .  A
N1400      O1415   1.262       .  A
N1400      O1416   1.263       .  A
N1402      O1413   1.262   1_556  A
N1402      O1414   1.262       .  A
C1404      C1405   1.402       .  A
C1404      N1409   1.437       .  S
C1405      C1406   1.406       .  A
C1405      H1410   1.080       .  S
C1406      C1407   1.414       .  A
C1407      C1408   1.401       .  A
C1407      N1411   1.431       .  S
C1408      H1412   1.081       .  S
N1409      O1419   1.262       .  A
N1409      O1420   1.263       .  A
N1411      O1417   1.262       .  A
N1411      O1418   1.262       .  A
C1421      C1422   1.402       .  A
C1421      C1426   1.398       .  A
C1421      H1431   1.084       .  S
C1422      C1427   1.481   1_554  S
C1422      C1423   1.410       .  A
C1423      C1424   1.403       .  A
C1423      N1428   1.435       .  S
C1424      C1425   1.406       .  A
C1424      H1429   1.084       .  S
C1425      C1426   1.414       .  A
C1426      N1430   1.430       .  S
C1427      C1432   1.409       .  A
C1427      C1436   1.402       .  A
N1428      O1443   1.262       .  A
N1428      O1444   1.262   1_554  A
N1430      O1441   1.262       .  A
N1430      O1442   1.262       .  A
C1432      C1433   1.400       .  A
C1432      N1437   1.434       .  S
C1433      C1434   1.407       .  A
C1433      H1438   1.083       .  S
C1434      C1435   1.415       .  A
C1435      C1436   1.402       .  A
C1435      N1439   1.431       .  S
C1436      H1440   1.083   1_556  S
N1437      O1447   1.262       .  A
N1437      O1448   1.262       .  A
N1439      O1445   1.262       .  A
N1439      O1446   1.262       .  A
C1449      C1450   1.401       .  A
C1449      C1454   1.401       .  A
C1449      H1459   1.088       .  S
C1450      C1455   1.479       .  S
C1450      C1451   1.410       .  A
C1451      C1452   1.403       .  A
C1451      N1456   1.436       .  S
C1452      C1453   1.408       .  A
C1452      H1457   1.087       .  S
C1453      C1454   1.416       .  A
C1454      N1458   1.434       .  S
C1455      C1460   1.409       .  A
C1455      C1464   1.401       .  A
N1456      O1471   1.262       .  A
N1456      O1472   1.263       .  A
N1458      O1469   1.262       .  A
N1458      O1470   1.262       .  A
C1460      C1461   1.400       .  A
C1460      N1465   1.434       .  S
C1461      C1462   1.406       .  A
C1461      H1466   1.086       .  S
C1462      C1463   1.416       .  A
C1463      C1464   1.401       .  A
C1463      N1467   1.430       .  S
C1464      H1468   1.087       .  S
N1465      O1475   1.262       .  A
N1465      O1476   1.262       .  A
N1467      O1473   1.262       .  A
N1467      O1474   1.262       .  A
C1477      C1478   1.404       .  A
C1477      C1482   1.402       .  A
C1477      H1487   1.083       .  S
C1478      C1483   1.485       .  S
C1478      C1479   1.412       .  A
C1479      C1480   1.400       .  A
C1479      N1484   1.436       .  S
C1480      C1481   1.406       .  A
C1480      H1485   1.083       .  S
C1481      C1482   1.416       .  A
C1482      N1486   1.432       .  S
C1483      C1488   1.412       .  A
C1483      C1492   1.404       .  A
N1484      O1499   1.262       .  A
N1484      O1500   1.262       .  A
N1486      O1497   1.262       .  A
N1486      O1498   1.262       .  A
C1488      C1489   1.401       .  A
C1488      N1493   1.435       .  S
C1489      C1490   1.406       .  A
C1489      H1494   1.083       .  S
C1490      C1491   1.415       .  A
C1491      C1492   1.400       .  A
C1491      N1495   1.430       .  S
C1492      H1496   1.083       .  S
N1493      O1503   1.262       .  A
N1493      O1504   1.262       .  A
N1495      O1501   1.262       .  A
N1495      O1502   1.262       .  A
C1505      C1506   1.405       .  A
C1505      C1510   1.401       .  A
C1505      H1515   1.084       .  S
C1506      C1511   1.490       .  S
C1506      C1507   1.414       .  A
C1507      C1508   1.402       .  A
C1507      N1512   1.436       .  S
C1508      C1509   1.406       .  A
C1508      H1513   1.083       .  S
C1509      C1510   1.414       .  A
C1510      N1514   1.432       .  S
C1511      C1516   1.415       .  A
C1511      C1520   1.405       .  A
N1512      O1527   1.262       .  A
N1512      O1528   1.262       .  A
N1514      O1525   1.262       .  A
N1514      O1526   1.262       .  A
C1516      C1517   1.401       .  A
C1516      N1521   1.436       .  S
C1517      C1518   1.405       .  A
C1517      H1522   1.084       .  S
C1518      C1519   1.414       .  A
C1519      C1520   1.402       .  A
C1519      N1523   1.430       .  S
C1520      H1524   1.084       .  S
N1521      O1531   1.262       .  A
N1521      O1532   1.263       .  A
N1523      O1529   1.262       .  A
N1523      O1530   1.262       .  A
C1533      C1534   1.402       .  A
C1533      C1538   1.402       .  A
C1533      H1543   1.086       .  S
C1534      C1539   1.481       .  S
C1534      C1535   1.410       .  A
C1535      C1536   1.400       .  A
C1535      N1540   1.436       .  S
C1536      C1537   1.407       .  A
C1536      H1541   1.085       .  S
C1537      C1538   1.416       .  A
C1538      N1542   1.431       .  S
C1539      C1544   1.411       .  A
C1539      C1548   1.401       .  A
N1540      O1555   1.262       .  A
N1540      O1556   1.263       .  A
N1542      O1553   1.262       .  A
N1542      O1554   1.262       .  A
C1544      C1545   1.403       .  A
C1544      N1549   1.437       .  S
C1545      C1546   1.407       .  A
C1545      H1550   1.085       .  S
C1546      C1547   1.416       .  A
C1547      C1548   1.399       .  A
C1547      N1551   1.431       .  S
C1548      H1552   1.086       .  S
N1549      O1559   1.262       .  A
N1549      O1560   1.263       .  A
N1551      O1557   1.262       .  A
N1551      O1558   1.262       .  A
C1561      C1562   1.403       .  A
C1561      C1566   1.401       .  A
C1561      H1571   1.086       .  S
C1562      C1567   1.488       .  S
C1562      C1563   1.414       .  A
C1563      C1564   1.403       .  A
C1563      N1568   1.437       .  S
C1564      C1565   1.405       .  A
C1564      H1569   1.085       .  S
C1565      C1566   1.415       .  A
C1566      N1570   1.431       .  S
C1567      C1572   1.414       .  A
C1567      C1576   1.403       .  A
N1568      O1583   1.262       .  A
N1568      O1584   1.263       .  A
N1570      O1581   1.262       .  A
N1570      O1582   1.262       .  A
C1572      C1573   1.405       .  A
C1572      N1577   1.437       .  S
C1573      C1574   1.407       .  A
C1573      H1578   1.085       .  S
C1574      C1575   1.415       .  A
C1575      C1576   1.400       .  A
C1575      N1579   1.432       .  S
C1576      H1580   1.085       .  S
N1577      O1587   1.262       .  A
N1577      O1588   1.263       .  A
N1579      O1585   1.262       .  A
N1579      O1586   1.262       .  A
C1589      C1590   1.402       .  A
C1589      C1594   1.400       .  A
C1589      H1599   1.086       .  S
C1590      C1595   1.481       .  S
C1590      C1591   1.415       .  A
C1591      C1592   1.402       .  A
C1591      N1596   1.439       .  S
C1592      C1593   1.405       .  A
C1592      H1597   1.085       .  S
C1593      C1594   1.412       .  A
C1594      N1598   1.431       .  S
C1595      C1600   1.415       .  A
C1595      C1604   1.401       .  A
N1596      O1611   1.263       .  A
N1596      O1612   1.263       .  A
N1598      O1609   1.262       .  A
N1598      O1610   1.262       .  A
C1600      C1601   1.404       .  A
C1600      N1605   1.439       .  S
C1601      C1602   1.406       .  A
C1601      H1606   1.085       .  S
C1602      C1603   1.413       .  A
C1603      C1604   1.397       .  A
C1603      N1607   1.430       .  S
C1604      H1608   1.086       .  S
N1605      O1615   1.263       .  A
N1605      O1616   1.263       .  A
N1607      O1613   1.262       .  A
N1607      O1614   1.262       .  A
C1617      C1618   1.402       .  A
C1617      C1622   1.399       .  A
C1617      H1627   1.087       .  S
C1618      C1623   1.481       .  S
C1618      C1619   1.411       .  A
C1619      C1620   1.402       .  A
C1619      N1624   1.436       .  S
C1620      C1621   1.406       .  A
C1620      H1625   1.086       .  S
C1621      C1622   1.415       .  A
C1622      N1626   1.434       .  S
C1623      C1628   1.412       .  A
C1623      C1632   1.402       .  A
N1624      O1639   1.262       .  A
N1624      O1640   1.263       .  A
N1626      O1637   1.262       .  A
N1626      O1638   1.262       .  A
C1628      C1629   1.400       .  A
C1628      N1633   1.437       .  S
C1629      C1630   1.406       .  A
C1629      H1634   1.086       .  S
C1630      C1631   1.414       .  A
C1631      C1632   1.400       .  A
C1631      N1635   1.430       .  S
C1632      H1636   1.087       .  S
N1633      O1643   1.262       .  A
N1633      O1644   1.263       .  A
N1635      O1641   1.262       .  A
N1635      O1642   1.262       .  A
C1645      C1646   1.402       .  A
C1645      C1650   1.398       .  A
C1645      H1655   1.089       .  S
C1646      C1651   1.485       .  S
C1646      C1647   1.414       .  A
C1647      C1648   1.404       .  A
C1647      N1652   1.437       .  S
C1648      C1649   1.406       .  A
C1648      H1653   1.088   1_556  S
C1649      C1650   1.415       .  A
C1650      N1654   1.429       .  S
C1651      C1656   1.413       .  A
C1651      C1660   1.402       .  A
N1652      O1667   1.263       .  A
N1652      O1668   1.263       .  A
N1654      O1665   1.262       .  A
N1654      O1666   1.262       .  A
C1656      C1657   1.402       .  A
C1656      N1661   1.436       .  S
C1657      C1658   1.405       .  A
C1657      H1662   1.087       .  S
C1658      C1659   1.415       .  A
C1659      C1660   1.400       .  A
C1659      N1663   1.431       .  S
C1660      H1664   1.088       .  S
N1661      O1671   1.263       .  A
N1661      O1672   1.262       .  A
N1663      O1669   1.262       .  A
N1663      O1670   1.262       .  A
C1673      C1674   1.401       .  A
C1673      C1678   1.403       .  A
C1673      H1683   1.086       .  S
C1674      C1679   1.481       .  S
C1674      C1675   1.411       .  A
C1675      C1676   1.403       .  A
C1675      N1680   1.437       .  S
C1676      C1677   1.406       .  A
C1676      H1681   1.085       .  S
C1677      C1678   1.416       .  A
C1678      N1682   1.433       .  S
C1679      C1684   1.406       .  A
C1679      C1688   1.403       .  A
N1680      O1695   1.262       .  A
N1680      O1696   1.263       .  A
N1682      O1693   1.262       .  A
N1682      O1694   1.263       .  A
C1684      C1685   1.399       .  A
C1684      N1689   1.429       .  S
C1685      C1686   1.407       .  A
C1685      H1690   1.086       .  S
C1686      C1687   1.414       .  A
C1687      C1688   1.402       .  A
C1687      N1691   1.429       .  S
C1688      H1692   1.086       .  S
N1689      O1699   1.262       .  A
N1689      O1700   1.262       .  A
N1691      O1697   1.262       .  A
N1691      O1698   1.262       .  A
C1701      C1702   1.402       .  A
C1701      C1706   1.399       .  A
C1701      H1711   1.087       .  S
C1702      C1707   1.480   1_455  S
C1702      C1703   1.410       .  A
C1703      C1704   1.401       .  A
C1703      N1708   1.436       .  S
C1704      C1705   1.407       .  A
C1704      H1709   1.086       .  S
C1705      C1706   1.415       .  A
C1706      N1710   1.430       .  S
C1707      C1712   1.410       .  A
C1707      C1716   1.400       .  A
N1708      O1723   1.262       .  A
N1708      O1724   1.262       .  A
N1710      O1721   1.262       .  A
N1710      O1722   1.262       .  A
C1712      C1713   1.402       .  A
C1712      N1717   1.434       .  S
C1713      C1714   1.406       .  A
C1713      H1718   1.086       .  S
C1714      C1715   1.416       .  A
C1715      C1716   1.397       .  A
C1715      N1719   1.429       .  S
C1716      H1720   1.087       .  S
N1717      O1727   1.262       .  A
N1717      O1728   1.262   1_655  A
N1719      O1725   1.262       .  A
N1719      O1726   1.262       .  A
C1729      C1730   1.401       .  A
C1729      C1734   1.397       .  A
C1729      H1739   1.085       .  S
C1730      C1735   1.485       .  S
C1730      C1731   1.415       .  A
C1731      C1732   1.408       .  A
C1731      N1736   1.439       .  S
C1732      C1733   1.408       .  A
C1732      H1737   1.084       .  S
C1733      C1734   1.414       .  A
C1734      N1738   1.429       .  S
C1735      C1740   1.415       .  A
C1735      C1744   1.402       .  A
N1736      O1751   1.263       .  A
N1736      O1752   1.263       .  A
N1738      O1749   1.262       .  A
N1738      O1750   1.262       .  A
C1740      C1741   1.405       .  A
C1740      N1745   1.438       .  S
C1741      C1742   1.407       .  A
C1741      H1746   1.084       .  S
C1742      C1743   1.414       .  A
C1743      C1744   1.400       .  A
C1743      N1747   1.430       .  S
C1744      H1748   1.085       .  S
N1745      O1755   1.262       .  A
N1745      O1756   1.263       .  A
N1747      O1753   1.262       .  A
N1747      O1754   1.262       .  A
C1757      C1758   1.403       .  A
C1757      C1762   1.402       .  A
C1757      H1767   1.094   1_556  S
C1758      C1763   1.489       .  S
C1758      C1759   1.415       .  A
C1759      C1760   1.402       .  A
C1759      N1764   1.437       .  S
C1760      C1761   1.404       .  A
C1760      H1765   1.093       .  S
C1761      C1762   1.416       .  A
C1762      N1766   1.434   1_556  S
C1763      C1768   1.415       .  A
C1763      C1772   1.403       .  A
N1764      O1779   1.263       .  A
N1764      O1780   1.263       .  A
N1766      O1777   1.263       .  A
N1766      O1778   1.262       .  A
C1768      C1769   1.403       .  A
C1768      N1773   1.437       .  S
C1769      C1770   1.406       .  A
C1769      H1774   1.092       .  S
C1770      C1771   1.415       .  A
C1771      C1772   1.401       .  A
C1771      N1775   1.432       .  S
C1772      H1776   1.093       .  S
N1773      O1783   1.263   1_556  A
N1773      O1784   1.263       .  A
N1775      O1781   1.262       .  A
N1775      O1782   1.262       .  A
C1785      C1786   1.404       .  A
C1785      C1790   1.402       .  A
C1785      H1795   1.085       .  S
C1786      C1791   1.488       .  S
C1786      C1787   1.415       .  A
C1787      C1788   1.403       .  A
C1787      N1792   1.438       .  S
C1788      C1789   1.404       .  A
C1788      H1793   1.085       .  S
C1789      C1790   1.414       .  A
C1790      N1794   1.433   1_554  S
C1791      C1796   1.414       .  A
C1791      C1800   1.404       .  A
N1792      O1807   1.263       .  A
N1792      O1808   1.263       .  A
N1794      O1805   1.262   1_556  A
N1794      O1806   1.262       .  A
C1796      C1797   1.405       .  A
C1796      N1801   1.437       .  S
C1797      C1798   1.407       .  A
C1797      H1802   1.085       .  S
C1798      C1799   1.414       .  A
C1799      C1800   1.399       .  A
C1799      N1803   1.431       .  S
C1800      H1804   1.085       .  S
N1801      O1811   1.263       .  A
N1801      O1812   1.263       .  A
N1803      O1809   1.262       .  A
N1803      O1810   1.262       .  A
C1813      C1814   1.402       .  A
C1813      C1818   1.402       .  A
C1813      H1823   1.086       .  S
C1814      C1819   1.482       .  S
C1814      C1815   1.410       .  A
C1815      C1816   1.401       .  A
C1815      N1820   1.437       .  S
C1816      C1817   1.407       .  A
C1816      H1821   1.085       .  S
C1817      C1818   1.416       .  A
C1818      N1822   1.430       .  S
C1819      C1824   1.409       .  A
C1819      C1828   1.401       .  A
N1820      O1835   1.262       .  A
N1820      O1836   1.263       .  A
N1822      O1833   1.262       .  A
N1822      O1834   1.262       .  A
C1824      C1825   1.404       .  A
C1824      N1829   1.433       .  S
C1825      C1826   1.408       .  A
C1825      H1830   1.085       .  S
C1826      C1827   1.415       .  A
C1827      C1828   1.396       .  A
C1827      N1831   1.430       .  S
C1828      H1832   1.086       .  S
N1829      O1839   1.262       .  A
N1829      O1840   1.262       .  A
N1831      O1837   1.262       .  A
N1831      O1838   1.262       .  A
C1841      C1842   1.401       .  A
C1841      C1846   1.400       .  A
C1841      H1851   1.088       .  S
C1842      C1847   1.484       .  S
C1842      C1843   1.412       .  A
C1843      C1844   1.403       .  A
C1843      N1848   1.436       .  S
C1844      C1845   1.406       .  A
C1844      H1849   1.088       .  S
C1845      C1846   1.417       .  A
C1846      N1850   1.431       .  S
C1847      C1852   1.412       .  A
C1847      C1856   1.401       .  A
N1848      O1863   1.262       .  A
N1848      O1864   1.263       .  A
N1850      O1861   1.262       .  A
N1850      O1862   1.262       .  A
C1852      C1853   1.403       .  A
C1852      N1857   1.436       .  S
C1853      C1854   1.406       .  A
C1853      H1858   1.087       .  S
C1854      C1855   1.419       .  A
C1855      C1856   1.401       .  A
C1855      N1859   1.434       .  S
C1856      H1860   1.088       .  S
N1857      O1867   1.262       .  A
N1857      O1868   1.263       .  A
N1859      O1865   1.262       .  A
N1859      O1866   1.262       .  A
C1869      C1870   1.403       .  A
C1869      C1874   1.401       .  A
C1869      H1879   1.086       .  S
C1870      C1875   1.487       .  S
C1870      C1871   1.412       .  A
C1871      C1872   1.404       .  A
C1871      N1876   1.436       .  S
C1872      C1873   1.407       .  A
C1872      H1877   1.085       .  S
C1873      C1874   1.415       .  A
C1874      N1878   1.429       .  S
C1875      C1880   1.413       .  A
C1875      C1884   1.403       .  A
N1876      O1891   1.262       .  A
N1876      O1892   1.263       .  A
N1878      O1889   1.262       .  A
N1878      O1890   1.262       .  A
C1880      C1881   1.405       .  A
C1880      N1885   1.438       .  S
C1881      C1882   1.407       .  A
C1881      H1886   1.085       .  S
C1882      C1883   1.416       .  A
C1883      C1884   1.401       .  A
C1883      N1887   1.433       .  S
C1884      H1888   1.086       .  S
N1885      O1895   1.263       .  A
N1885      O1896   1.263       .  A
N1887      O1893   1.262       .  A
N1887      O1894   1.262       .  A
C1897      C1898   1.403       .  A
C1897      C1902   1.404       .  A
C1897      H1907   1.084       .  S
C1898      C1903   1.483   1_654  S
C1898      C1899   1.410       .  A
C1899      C1900   1.399       .  A
C1899      N1904   1.434   1_655  S
C1900      C1901   1.406       .  A
C1900      H1905   1.083       .  S
C1901      C1902   1.416       .  A
C1902      N1906   1.429       .  S
C1903      C1908   1.411       .  A
C1903      C1912   1.402       .  A
N1904      O1919   1.262       .  A
N1904      O1920   1.263   1_554  A
N1906      O1917   1.262       .  A
N1906      O1918   1.262       .  A
C1908      C1909   1.404       .  A
C1908      N1913   1.434   1_455  S
C1909      C1910   1.407       .  A
C1909      H1914   1.084       .  S
C1910      C1911   1.416       .  A
C1911      C1912   1.399       .  A
C1911      N1915   1.431       .  S
C1912      H1916   1.085   1_556  S
N1913      O1923   1.262       .  A
N1913      O1924   1.262       .  A
N1915      O1921   1.262       .  A
N1915      O1922   1.262       .  A
C1925      C1926   1.404       .  A
C1925      C1930   1.402       .  A
C1925      H1935   1.091       .  S
C1926      C1931   1.493   1_655  S
C1926      C1927   1.415       .  A
C1927      C1928   1.404       .  A
C1927      N1932   1.437       .  S
C1928      C1929   1.406       .  A
C1928      H1933   1.090       .  S
C1929      C1930   1.415       .  A
C1930      N1934   1.429       .  S
C1931      C1936   1.415       .  A
C1931      C1940   1.404       .  A
N1932      O1947   1.263       .  A
N1932      O1948   1.263       .  A
N1934      O1945   1.262       .  A
N1934      O1946   1.262       .  A
C1936      C1937   1.404       .  A
C1936      N1941   1.437   1_455  S
C1937      C1938   1.406       .  A
C1937      H1942   1.090       .  S
C1938      C1939   1.415       .  A
C1939      C1940   1.402       .  A
C1939      N1943   1.432       .  S
C1940      H1944   1.091       .  S
N1941      O1951   1.263       .  A
N1941      O1952   1.263       .  A
N1943      O1949   1.262       .  A
N1943      O1950   1.262       .  A
C1953      C1954   1.405       .  A
C1953      C1958   1.403       .  A
C1953      H1963   1.086       .  S
C1954      C1959   1.493       .  S
C1954      C1955   1.416       .  A
C1955      C1956   1.403       .  A
C1955      N1960   1.437       .  S
C1956      C1957   1.405       .  A
C1956      H1961   1.085       .  S
C1957      C1958   1.414       .  A
C1958      N1962   1.432       .  S
C1959      C1964   1.416       .  A
C1959      C1968   1.405       .  A
N1960      O1975   1.263       .  A
N1960      O1976   1.263       .  A
N1962      O1973   1.262   1_554  A
N1962      O1974   1.262   1_554  A
C1964      C1965   1.404       .  A
C1964      N1969   1.436       .  S
C1965      C1966   1.405       .  A
C1965      H1970   1.085       .  S
C1966      C1967   1.414       .  A
C1967      C1968   1.401       .  A
C1967      N1971   1.430       .  S
C1968      H1972   1.086       .  S
N1969      O1979   1.263   1_554  A
N1969      O1980   1.262       .  A
N1971      O1977   1.262       .  A
N1971      O1978   1.262       .  A
C1981      C1982   1.403       .  A
C1981      C1986   1.402       .  A
C1981      H1991   1.087       .  S
C1982      C1987   1.482       .  S
C1982      C1983   1.411       .  A
C1983      C1984   1.399       .  A
C1983      N1988   1.436       .  S
C1984      C1985   1.406       .  A
C1984      H1989   1.087       .  S
C1985      C1986   1.415       .  A
C1986      N1990   1.429       .  S
C1987      C1992   1.411       .  A
C1987      C1996   1.401       .  A
N1988      O2003   1.262       .  A
N1988      O2004   1.263       .  A
N1990      O2001   1.262       .  A
N1990      O2002   1.262       .  A
C1992      C1993   1.404       .  A
C1992      N1997   1.436       .  S
C1993      C1994   1.407       .  A
C1993      H1998   1.087       .  S
C1994      C1995   1.416       .  A
C1995      C1996   1.399       .  A
C1995      N1999   1.434       .  S
C1996      H2000   1.087       .  S
N1997      O2007   1.262       .  A
N1997      O2008   1.263       .  A
N1999      O2005   1.263       .  A
N1999      O2006   1.262       .  A
C2009      C2010   1.399       .  A
C2009      C2014   1.401       .  A
C2009      H2019   1.084       .  S
C2010      C2015   1.476       .  S
C2010      C2011   1.406       .  A
C2011      C2012   1.399       .  A
C2011      N2016   1.429       .  S
C2012      C2013   1.407       .  A
C2012      H2017   1.084       .  S
C2013      C2014   1.417       .  A
C2014      N2018   1.428       .  S
C2015      C2020   1.409       .  A
C2015      C2024   1.399       .  A
N2016      O2031   1.262       .  A
N2016      O2032   1.262       .  A
N2018      O2029   1.262   1_556  A
N2018      O2030   1.262       .  A
C2020      C2021   1.403       .  A
C2020      N2025   1.433       .  S
C2021      C2022   1.406       .  A
C2021      H2026   1.085       .  S
C2022      C2023   1.415       .  A
C2023      C2024   1.399       .  A
C2023      N2027   1.430       .  S
C2024      H2028   1.085       .  S
N2025      O2035   1.262       .  A
N2025      O2036   1.262       .  A
N2027      O2033   1.262       .  A
N2027      O2034   1.262       .  A
C2037      C2038   1.406       .  A
C2037      C2042   1.403       .  A
C2037      H2047   1.086       .  S
C2038      C2043   1.491       .  S
C2038      C2039   1.415       .  A
C2039      C2040   1.402       .  A
C2039      N2044   1.437       .  S
C2040      C2041   1.406       .  A
C2040      H2045   1.086       .  S
C2041      C2042   1.413       .  A
C2042      N2046   1.429       .  S
C2043      C2048   1.415       .  A
C2043      C2052   1.404       .  A
N2044      O2059   1.263       .  A
N2044      O2060   1.263       .  A
N2046      O2057   1.262   1_554  A
N2046      O2058   1.262       .  A
C2048      C2049   1.406       .  A
C2048      N2053   1.437       .  S
C2049      C2050   1.407       .  A
C2049      H2054   1.085       .  S
C2050      C2051   1.413       .  A
C2051      C2052   1.400       .  A
C2051      N2055   1.430       .  S
C2052      H2056   1.086       .  S
N2053      O2063   1.263       .  A
N2053      O2064   1.263       .  A
N2055      O2061   1.262       .  A
N2055      O2062   1.262       .  A
C2065      C2066   1.400       .  A
C2065      C2070   1.404       .  A
C2065      H2075   1.085       .  S
C2066      C2071   1.478       .  S
C2066      C2067   1.406       .  A
C2067      C2068   1.400       .  A
C2067      N2072   1.430       .  S
C2068      C2069   1.407       .  A
C2068      H2073   1.084       .  S
C2069      C2070   1.415       .  A
C2070      N2074   1.429   1_554  S
C2071      C2076   1.406       .  A
C2071      C2080   1.399       .  A
N2072      O2087   1.262       .  A
N2072      O2088   1.262       .  A
N2074      O2085   1.262   1_556  A
N2074      O2086   1.262       .  A
C2076      C2077   1.401       .  A
C2076      N2081   1.429       .  S
C2077      C2078   1.408       .  A
C2077      H2082   1.085       .  S
C2078      C2079   1.417       .  A
C2079      C2080   1.401       .  A
C2079      N2083   1.429       .  S
C2080      H2084   1.085       .  S
N2081      O2091   1.262       .  A
N2081      O2092   1.262       .  A
N2083      O2089   1.262   1_554  A
N2083      O2090   1.262       .  A
C2093      C2094   1.404       .  A
C2093      C2098   1.402       .  A
C2093      H2103   1.086       .  S
C2094      C2099   1.487       .  S
C2094      C2095   1.412       .  A
C2095      C2096   1.402       .  A
C2095      N2100   1.436       .  S
C2096      C2097   1.406       .  A
C2096      H2101   1.085       .  S
C2097      C2098   1.415       .  A
C2098      N2102   1.429       .  S
C2099      C2104   1.413       .  A
C2099      C2108   1.403       .  A
N2100      O2115   1.262       .  A
N2100      O2116   1.262       .  A
N2102      O2113   1.262       .  A
N2102      O2114   1.262       .  A
C2104      C2105   1.405       .  A
C2104      N2109   1.436       .  S
C2105      C2106   1.407       .  A
C2105      H2110   1.086       .  S
C2106      C2107   1.415       .  A
C2107      C2108   1.400       .  A
C2107      N2111   1.433       .  S
C2108      H2112   1.087       .  S
N2109      O2119   1.262       .  A
N2109      O2120   1.263       .  A
N2111      O2117   1.262       .  A
N2111      O2118   1.262       .  A
C2121      C2122   1.404       .  A
C2121      C2126   1.400       .  A
C2121      H2131   1.087       .  S
C2122      C2127   1.487       .  S
C2122      C2123   1.414       .  A
C2123      C2124   1.402       .  A
C2123      N2128   1.436       .  S
C2124      C2125   1.405       .  A
C2124      H2129   1.086       .  S
C2125      C2126   1.413       .  A
C2126      N2130   1.431       .  S
C2127      C2132   1.413       .  A
C2127      C2136   1.405       .  A
N2128      O2143   1.262       .  A
N2128      O2144   1.263       .  A
N2130      O2141   1.262       .  A
N2130      O2142   1.262       .  A
C2132      C2133   1.400       .  A
C2132      N2137   1.436       .  S
C2133      C2134   1.406       .  A
C2133      H2138   1.085       .  S
C2134      C2135   1.413       .  A
C2135      C2136   1.402       .  A
C2135      N2139   1.429       .  S
C2136      H2140   1.086       .  S
N2137      O2147   1.262       .  A
N2137      O2148   1.263       .  A
N2139      O2145   1.262   1_554  A
N2139      O2146   1.262       .  A
C2149      C2150   1.402       .  A
C2149      C2154   1.400       .  A
C2149      H2159   1.086       .  S
C2150      C2155   1.485       .  S
C2150      C2151   1.410       .  A
C2151      C2152   1.403       .  A
C2151      N2156   1.434       .  S
C2152      C2153   1.407       .  A
C2152      H2157   1.085       .  S
C2153      C2154   1.416       .  A
C2154      N2158   1.431   1_556  S
C2155      C2160   1.410       .  A
C2155      C2164   1.403       .  A
N2156      O2171   1.262       .  A
N2156      O2172   1.262       .  A
N2158      O2169   1.262       .  A
N2158      O2170   1.262   1_554  A
C2160      C2161   1.402       .  A
C2160      N2165   1.435   1_556  S
C2161      C2162   1.407       .  A
C2161      H2166   1.085   1_556  S
C2162      C2163   1.416       .  A
C2163      C2164   1.401       .  A
C2163      N2167   1.432       .  S
C2164      H2168   1.086       .  S
N2165      O2175   1.262       .  A
N2165      O2176   1.263       .  A
N2167      O2173   1.262       .  A
N2167      O2174   1.262       .  A
C2177      C2178   1.401       .  A
C2177      C2182   1.399       .  A
C2177      H2187   1.086       .  S
C2178      C2183   1.481       .  S
C2178      C2179   1.414       .  A
C2179      C2180   1.403       .  A
C2179      N2184   1.439       .  S
C2180      C2181   1.405       .  A
C2180      H2185   1.086       .  S
C2181      C2182   1.414       .  A
C2182      N2186   1.429       .  S
C2183      C2188   1.413       .  A
C2183      C2192   1.402       .  A
N2184      O2199   1.263       .  A
N2184      O2200   1.263       .  A
N2186      O2197   1.262       .  A
N2186      O2198   1.262       .  A
C2188      C2189   1.400       .  A
C2188      N2193   1.439       .  S
C2189      C2190   1.405       .  A
C2189      H2194   1.086       .  S
C2190      C2191   1.415       .  A
C2191      C2192   1.402       .  A
C2191      N2195   1.430       .  S
C2192      H2196   1.087       .  S
N2193      O2203   1.263       .  A
N2193      O2204   1.263       .  A
N2195      O2201   1.262       .  A
N2195      O2202   1.262       .  A
C2205      C2206   1.402       .  A
C2205      C2210   1.400       .  A
C2205      H2215   1.086       .  S
C2206      C2211   1.480   1_554  S
C2206      C2207   1.411       .  A
C2207      C2208   1.399       .  A
C2207      N2212   1.436       .  S
C2208      C2209   1.406       .  A
C2208      H2213   1.085       .  S
C2209      C2210   1.414       .  A
C2210      N2214   1.429       .  S
C2211      C2216   1.411   1_655  A
C2211      C2220   1.401       .  A
N2212      O2227   1.262       .  A
N2212      O2228   1.263   1_655  A
N2214      O2225   1.262       .  A
N2214      O2226   1.262       .  A
C2216      C2217   1.402       .  A
C2216      N2221   1.435   1_556  S
C2217      C2218   1.406       .  A
C2217      H2222   1.086       .  S
C2218      C2219   1.415       .  A
C2219      C2220   1.399   1_455  A
C2219      N2223   1.433       .  S
C2220      H2224   1.086       .  S
N2221      O2231   1.262       .  A
N2221      O2232   1.263       .  A
N2223      O2229   1.262   1_455  A
N2223      O2230   1.262       .  A
C2233      C2234   1.402   1_455  A
C2233      C2238   1.400       .  A
C2233      H2243   1.089       .  S
C2234      C2239   1.486       .  S
C2234      C2235   1.413   1_655  A
C2235      C2236   1.403       .  A
C2235      N2240   1.436   1_455  S
C2236      C2237   1.406       .  A
C2236      H2241   1.088       .  S
C2237      C2238   1.416       .  A
C2238      N2242   1.432       .  S
C2239      C2244   1.413       .  A
C2239      C2248   1.401       .  A
N2240      O2255   1.263       .  A
N2240      O2256   1.263       .  A
N2242      O2253   1.262       .  A
N2242      O2254   1.262       .  A
C2244      C2245   1.403       .  A
C2244      N2249   1.437       .  S
C2245      C2246   1.406       .  A
C2245      H2250   1.088       .  S
C2246      C2247   1.417       .  A
C2247      C2248   1.400       .  A
C2247      N2251   1.432       .  S
C2248      H2252   1.089       .  S
N2249      O2259   1.263       .  A
N2249      O2260   1.263       .  A
N2251      O2257   1.262       .  A
N2251      O2258   1.262       .  A
C2261      C2262   1.400       .  A
C2261      C2266   1.400       .  A
C2261      H2271   1.087       .  S
C2262      C2267   1.479       .  S
C2262      C2263   1.410       .  A
C2263      C2264   1.403       .  A
C2263      N2268   1.436       .  S
C2264      C2265   1.406       .  A
C2264      H2269   1.086       .  S
C2265      C2266   1.416       .  A
C2266      N2270   1.434       .  S
C2267      C2272   1.410       .  A
C2267      C2276   1.400       .  A
N2268      O2283   1.262       .  A
N2268      O2284   1.263       .  A
N2270      O2281   1.262       .  A
N2270      O2282   1.263       .  A
C2272      C2273   1.404       .  A
C2272      N2277   1.436       .  S
C2273      C2274   1.406       .  A
C2273      H2278   1.086       .  S
C2274      C2275   1.417       .  A
C2275      C2276   1.400       .  A
C2275      N2279   1.433       .  S
C2276      H2280   1.087       .  S
N2277      O2287   1.262       .  A
N2277      O2288   1.263       .  A
N2279      O2285   1.263       .  A
N2279      O2286   1.262       .  A
C2289      C2290   1.403       .  A
C2289      C2294   1.400       .  A
C2289      H2299   1.088       .  S
C2290      C2295   1.484       .  S
C2290      C2291   1.414       .  A
C2291      C2292   1.400       .  A
C2291      N2296   1.437       .  S
C2292      C2293   1.404       .  A
C2292      H2297   1.087       .  S
C2293      C2294   1.415       .  A
C2294      N2298   1.430       .  S
C2295      C2300   1.414       .  A
C2295      C2304   1.401       .  A
N2296      O2311   1.263       .  A
N2296      O2312   1.263       .  A
N2298      O2309   1.262       .  A
N2298      O2310   1.262       .  A
C2300      C2301   1.405       .  A
C2300      N2305   1.436       .  S
C2301      C2302   1.406       .  A
C2301      H2306   1.088       .  S
C2302      C2303   1.413       .  A
C2303      C2304   1.394       .  A
C2303      N2307   1.430       .  S
C2304      H2308   1.089       .  S
N2305      O2315   1.263       .  A
N2305      O2316   1.262       .  A
N2307      O2313   1.262       .  A
N2307      O2314   1.262       .  A
C2317      C2318   1.403       .  A
C2317      C2322   1.401       .  A
C2317      H2327   1.087       .  S
C2318      C2323   1.485       .  S
C2318      C2319   1.413       .  A
C2319      C2320   1.401       .  A
C2319      N2324   1.436       .  S
C2320      C2321   1.406       .  A
C2320      H2325   1.086       .  S
C2321      C2322   1.415       .  A
C2322      N2326   1.429       .  S
C2323      C2328   1.413       .  A
C2323      C2332   1.401       .  A
N2324      O2339   1.262       .  A
N2324      O2340   1.263       .  A
N2326      O2337   1.262       .  A
N2326      O2338   1.262       .  A
C2328      C2329   1.404       .  A
C2328      N2333   1.435       .  S
C2329      C2330   1.406       .  A
C2329      H2334   1.086       .  S
C2330      C2331   1.416       .  A
C2331      C2332   1.399       .  A
C2331      N2335   1.434       .  S
C2332      H2336   1.087       .  S
N2333      O2343   1.262       .  A
N2333      O2344   1.263       .  A
N2335      O2341   1.262       .  A
N2335      O2342   1.262       .  A
C2345      C2346   1.401       .  A
C2345      C2350   1.402       .  A
C2345      H2355   1.085       .  S
C2346      C2351   1.479       .  S
C2346      C2347   1.408       .  A
C2347      C2348   1.402       .  A
C2347      N2352   1.434       .  S
C2348      C2349   1.407       .  A
C2348      H2353   1.085       .  S
C2349      C2350   1.416       .  A
C2350      N2354   1.434       .  S
C2351      C2356   1.410       .  A
C2351      C2360   1.400       .  A
N2352      O2367   1.262       .  A
N2352      O2368   1.262       .  A
N2354      O2365   1.262       .  A
N2354      O2366   1.263       .  A
C2356      C2357   1.404       .  A
C2356      N2361   1.437       .  S
C2357      C2358   1.407       .  A
C2357      H2362   1.085       .  S
C2358      C2359   1.417       .  A
C2359      C2360   1.401       .  A
C2359      N2363   1.431       .  S
C2360      H2364   1.086       .  S
N2361      O2371   1.262       .  A
N2361      O2372   1.263       .  A
N2363      O2369   1.262   1_556  A
N2363      O2370   1.262       .  A
C2373      C2374   1.403       .  A
C2373      C2378   1.401       .  A
C2373      H2383   1.094       .  S
C2374      C2379   1.487       .  S
C2374      C2375   1.414       .  A
C2375      C2376   1.401       .  A
C2375      N2380   1.436       .  S
C2376      C2377   1.404       .  A
C2376      H2381   1.094       .  S
C2377      C2378   1.415       .  A
C2378      N2382   1.432       .  S
C2379      C2384   1.414       .  A
C2379      C2388   1.403       .  A
N2380      O2395   1.263       .  A
N2380      O2396   1.263       .  A
N2382      O2393   1.262       .  A
N2382      O2394   1.262       .  A
C2384      C2385   1.402       .  A
C2384      N2389   1.435       .  S
C2385      C2386   1.406       .  A
C2385      H2390   1.093       .  S
C2386      C2387   1.415       .  A
C2387      C2388   1.400       .  A
C2387      N2391   1.432       .  S
C2388      H2392   1.094       .  S
N2389      O2399   1.262       .  A
N2389      O2400   1.262       .  A
N2391      O2397   1.262       .  A
N2391      O2398   1.262       .  A
C2401      C2402   1.401       .  A
C2401      C2406   1.401       .  A
C2401      H2411   1.087       .  S
C2402      C2407   1.479       .  S
C2402      C2403   1.409       .  A
C2403      C2404   1.399       .  A
C2403      N2408   1.434       .  S
C2404      C2405   1.406       .  A
C2404      H2409   1.087       .  S
C2405      C2406   1.415       .  A
C2406      N2410   1.430       .  S
C2407      C2412   1.410       .  A
C2407      C2416   1.400       .  A
N2408      O2423   1.262       .  A
N2408      O2424   1.262       .  A
N2410      O2421   1.262       .  A
N2410      O2422   1.262       .  A
C2412      C2413   1.405       .  A
C2412      N2417   1.437       .  S
C2413      C2414   1.408       .  A
C2413      H2418   1.086       .  S
C2414      C2415   1.416       .  A
C2415      C2416   1.398       .  A
C2415      N2419   1.430       .  S
C2416      H2420   1.087       .  S
N2417      O2427   1.262       .  A
N2417      O2428   1.263       .  A
N2419      O2425   1.262       .  A
N2419      O2426   1.262       .  A
C2429      C2430   1.402       .  A
C2429      C2434   1.403       .  A
C2429      H2439   1.086       .  S
C2430      C2435   1.484       .  S
C2430      C2431   1.408       .  A
C2431      C2432   1.402       .  A
C2431      N2436   1.432       .  S
C2432      C2433   1.408       .  A
C2432      H2437   1.085       .  S
C2433      C2434   1.417       .  A
C2434      N2438   1.433       .  S
C2435      C2440   1.407       .  A
C2435      C2444   1.402       .  A
N2436      O2451   1.262       .  A
N2436      O2452   1.262       .  A
N2438      O2449   1.262       .  A
N2438      O2450   1.263       .  A
C2440      C2441   1.400       .  A
C2440      N2445   1.431       .  S
C2441      C2442   1.407       .  A
C2441      H2446   1.085       .  S
C2442      C2443   1.417       .  A
C2443      C2444   1.403       .  A
C2443      N2447   1.432       .  S
C2444      H2448   1.086       .  S
N2445      O2455   1.262       .  A
N2445      O2456   1.262       .  A
N2447      O2453   1.262   1_554  A
N2447      O2454   1.262       .  A
C2457      C2458   1.402       .  A
C2457      C2462   1.401       .  A
C2457      H2467   1.087       .  S
C2458      C2463   1.487   1_455  S
C2458      C2459   1.413       .  A
C2459      C2460   1.403       .  A
C2459      N2464   1.436   1_455  S
C2460      C2461   1.406       .  A
C2460      H2465   1.087       .  S
C2461      C2462   1.417       .  A
C2462      N2466   1.431       .  S
C2463      C2468   1.412       .  A
C2463      C2472   1.403       .  A
N2464      O2479   1.262       .  A
N2464      O2480   1.263       .  A
N2466      O2477   1.262       .  A
N2466      O2478   1.262       .  A
C2468      C2469   1.403       .  A
C2468      N2473   1.434       .  S
C2469      C2470   1.406       .  A
C2469      H2474   1.086       .  S
C2470      C2471   1.415       .  A
C2471      C2472   1.400       .  A
C2471      N2475   1.429       .  S
C2472      H2476   1.087       .  S
N2473      O2483   1.262       .  A
N2473      O2484   1.262   1_655  A
N2475      O2481   1.262       .  A
N2475      O2482   1.262       .  A
