geometry optimzed in LAMMPS
_audit_creation_date              2020-11-30 
_audit_creation_method            'lammps2cif' 
_symmetry_space_group_name_H-M    'P1' 
_symmetry_Int_Tables_number       1 
_symmetry_cell_setting            triclinic 
loop_ 
_symmetry_equiv_pos_as_xyz 
  x,y,z 
_cell_length_a                    28.44773761 
_cell_length_b                    29.41573421478149 
_cell_length_c                    24.252691995201626 
_cell_angle_alpha                 89.49380312651006 
_cell_angle_beta                  89.38025024901545 
_cell_angle_gamma                 120.19406777682924 
loop_ 
_atom_site_label 
_atom_site_type_symbol 
_atom_site_fract_x 
_atom_site_fract_y 
_atom_site_fract_z 
_atom_site_charge 
Fe1        Fe  0.13189223  0.37367955  0.37038127     1.65800
Fe2        Fe  0.25338314  0.38114640  0.37857561     1.73200
Fe3        Fe  0.13998949  0.26312679  0.36723764     1.54400
O4          O  0.09306216  0.25327124  0.43490844    -0.80400
O5          O  0.26694274  0.32969593  0.32941095    -0.78700
O6          O  0.06816404  0.31299312  0.41885950    -0.82900
O7          O  0.09670725  0.33929727  0.29822502    -0.77700
O8          O  0.19650209  0.25938398  0.42102963    -0.79500
O9          O  0.26003976  0.42288008  0.30862663    -0.82200
C10         C  0.06926678  0.29076814  0.28888282     0.98500
C11         C  0.06304395  0.27251651  0.44489363     1.06000
O12         O  0.17498400  0.33932715  0.37180790    -1.11200
O13         O  0.25061416  0.43864988  0.42834103    -0.73700
O14         O  0.16301886  0.41130580  0.44245291    -0.77100
O15         O  0.07744945  0.25709002  0.31453227    -0.77800
C16         C  0.21235708  0.44148858  0.45337659     0.97400
O17         O  0.19131131  0.43799185  0.32194404    -0.76000
O18         O  0.25101653  0.34138310  0.44894363    -0.81000
C19         C  0.23780905  0.29114545  0.29799076     1.00100
C20         C  0.23236309  0.29236918  0.45370900     1.06000
O21         O  0.18623617  0.26780001  0.29949737    -0.76600
C22         C  0.23552273  0.44751531  0.29715600     1.04300
Fe23       Fe  0.37431246  0.12818208  0.11836719     1.65800
Fe24       Fe  0.25324357  0.12134212  0.11051382     1.73200
Fe25       Fe  0.36586513  0.23863152  0.12592928     1.54400
O26         O  0.42710535  0.24367061  0.17964008    -0.80400
O27         O  0.25719474  0.16184796  0.04044648    -0.78700
O28         O  0.41067633  0.16169786  0.19065548    -0.82900
O29         O  0.43719776  0.18884973  0.07101736    -0.77700
O30         O  0.31811775  0.23157195  0.19312612    -0.79500
O31         O  0.25547790  0.06269491  0.06215443    -0.82200
C32         C  0.44337010  0.23054823  0.04719410     0.98500
C33         C  0.43609477  0.20964873  0.20324258     1.06000
O34         O  0.33148393  0.16280304  0.11845674    -1.11200
O35         O  0.24691813  0.08045822  0.18003504    -0.73700
O36         O  0.31490370  0.06416032  0.16581748    -0.77100
O37         O  0.41464696  0.25088411  0.05897473    -0.77800
C38         C  0.27113716  0.05545179  0.19073737     0.97400
O39         O  0.34274701  0.09092541  0.04576675    -0.75800
O40         O  0.23842835  0.17241101  0.15908177    -0.81000
C41         C  0.27411132  0.21069397  0.03878160     1.00100
C42         C  0.26669084  0.20950725  0.19234025     1.06000
O43         O  0.30955188  0.24284715  0.07236619    -0.76600
C44         C  0.29322518  0.05912554  0.03707165     1.04300
C45         C  0.02083313  0.24480913  0.48837325    -0.15100
C46         C  0.48547239  0.25776595  0.00403822    -0.30300
H47         H  0.01988196  0.21147957  0.50922641     0.13900
H48         H  0.48852899  0.29260753  0.98456478     0.14500
C49         C  0.47798481  0.22433112  0.24633737    -0.15100
C50         C  0.02596046  0.27497191  0.24739738    -0.30300
H51         H  0.47606999  0.19283368  0.27181047     0.13900
H52         H  0.03219963  0.30299527  0.21461224     0.14500
C53         C  0.24523854  0.01455068  0.23348150    -0.15100
C54         C  0.26151701  0.48907939  0.25381723    -0.30300
H55         H  0.21109969  0.01290982  0.25592751     0.13900
H56         H  0.29711806  0.49288260  0.23240199     0.14500
C57         C  0.28038786  0.01638507  0.99727954    -0.15100
C58         C  0.22395056  0.48151277  0.49595964    -0.30300
H59         H  0.31054121  0.02254071  0.96574109     0.13900
H60         H  0.19018965  0.47775021  0.52094534     0.14500
C61         C  0.25515150  0.27486508  0.49846276    -0.15100
C62         C  0.24937656  0.22899804  0.99729485    -0.30300
H63         H  0.28214281  0.30421764  0.52734895     0.13900
H64         H  0.22611174  0.20205473  0.96480816     0.14500
C65         C  0.23848408  0.22810657  0.23002845    -0.15100
C66         C  0.26549857  0.27246407  0.25973732    -0.30300
H67         H  0.19435138  0.20540479  0.23232905     0.13900
H68         H  0.30961914  0.29524196  0.25712205     0.14500
Fe69       Fe  0.12800840  0.37616394  0.87664870     1.65800
Fe70       Fe  0.24893310  0.38275636  0.88549878     1.73200
Fe71       Fe  0.13585917  0.26544272  0.87103128     1.54400
O72         O  0.08754663  0.25375762  0.93807251    -0.80400
O73         O  0.26301016  0.33053051  0.83800813    -0.78700
O74         O  0.06480975  0.31567705  0.92594934    -0.82900
O75         O  0.09121085  0.34169366  0.80491036    -0.77700
O76         O  0.19229158  0.26159775  0.92459951    -0.79500
O77         O  0.25640534  0.42337467  0.81503989    -0.82200
C78         C  0.06546644  0.29358304  0.79320037     0.98500
C79         C  0.05866121  0.27386424  0.94997279     1.06000
O80         O  0.17059578  0.34142836  0.87750534    -1.11200
O81         O  0.24717781  0.44219720  0.93322284    -0.73700
O82         O  0.15990071  0.41460482  0.94855452    -0.77100
O83         O  0.07427783  0.25977703  0.81753056    -0.77800
C84         C  0.20935477  0.44592237  0.95800258     0.97400
O85         O  0.18799556  0.43943659  0.82708731    -0.76000
O86         O  0.24424556  0.34271536  0.95629256    -0.81000
C87         C  0.23444000  0.29311321  0.80515775     1.00100
C88         C  0.22745211  0.29389533  0.95827465     1.06000
O89         O  0.18313133  0.27187145  0.80386791    -0.76600
C90         C  0.23214644  0.44799337  0.80262814     1.04300
Fe91       Fe  0.36733437  0.12452436  0.63167750     1.65800
Fe92       Fe  0.24596658  0.11790966  0.62252836     1.73200
Fe93       Fe  0.35972516  0.23554854  0.63486594     1.54400
O94         O  0.42161679  0.24115453  0.68773672    -0.80400
O95         O  0.24882124  0.15854541  0.55280433    -0.78700
O96         O  0.40274319  0.15903934  0.70370134    -0.82900
O97         O  0.43118019  0.18501306  0.58274987    -0.77700
O98         O  0.31321658  0.23073064  0.70225583    -0.79500
O99         O  0.24885741  0.06146829  0.57141067    -0.82200
C100        C  0.43696358  0.22607808  0.55734341     0.98500
C101        C  0.42997099  0.20754289  0.71312897     1.06000
O102        O  0.32443541  0.15925125  0.62988007    -1.11200
O103        O  0.23828488  0.07487403  0.69181820    -0.73700
O104        O  0.30775846  0.06051714  0.68040621    -0.77100
O105        O  0.40732012  0.24568940  0.56769377    -0.77800
C106        C  0.26299963  0.05063959  0.70423655     0.97400
O107        O  0.33622692  0.08638445  0.55995845    -0.75800
O108        O  0.23243663  0.16896649  0.67238598    -0.81000
C109        C  0.26783280  0.20759740  0.54827369     1.00100
C110        C  0.26169206  0.20777084  0.70345992     1.06000
O111        O  0.30389950  0.24026740  0.58094634    -0.76600
C112        C  0.28710445  0.05807805  0.54711843     1.04300
C113        C  0.01655392  0.24555810  0.99346213    -0.15100
C114        C  0.47957053  0.25429016  0.51419747    -0.30300
H115        H  0.01503596  0.21141116  0.01296052     0.13900
H116        H  0.48193508  0.28907565  0.49536256     0.14500
C117        C  0.47356751  0.22368638  0.75411555    -0.15100
C118        C  0.02344279  0.27837496  0.75023503    -0.30300
H119        H  0.46771808  0.19614024  0.78728915     0.13900
H120        H  0.02689053  0.30895031  0.72215577     0.14500
C121        C  0.23671690  0.00931592  0.74785235    -0.15100
C122        C  0.25858623  0.48828372  0.75842485    -0.30300
H123        H  0.20175643  0.00640143  0.76979464     0.13900
H124        H  0.29290571  0.48997540  0.73634043     0.14500
C125        C  0.27564771  0.01955016  0.50293774    -0.15100
C126        C  0.22166929  0.48787730  0.99882592    -0.30300
H127        H  0.30978370  0.01885887  0.48326322     0.13900
H128        H  0.19001917  0.48190786  0.02840446     0.14500
C129        C  0.25208980  0.27572401  0.00003079    -0.15100
C130        C  0.24521381  0.22539338  0.50366326    -0.30300
H131        H  0.27533176  0.30269476  0.03250245     0.13900
H132        H  0.21818919  0.19608150  0.47476096     0.14500
C133        C  0.23442209  0.22760032  0.74071274    -0.15100
C134        C  0.26200223  0.27297169  0.76873682    -0.30300
H135        H  0.19030365  0.20514208  0.74365328     0.13900
H136        H  0.30613205  0.29533912  0.76607862     0.14500
Fe137      Fe  0.12775492  0.87912504  0.36233658     1.65800
Fe138      Fe  0.24241084  0.87366364  0.37590181     1.73200
Fe139      Fe  0.12012523  0.76278649  0.38072561     1.54400
O140        O  0.08089997  0.77056528  0.44793356    -0.80400
O141        O  0.24436387  0.81281209  0.33060264    -0.78700
O142        O  0.06130020  0.82917594  0.41266679    -0.82900
O143        O  0.09009252  0.83838729  0.29363647    -0.77700
O144        O  0.17601813  0.75716224  0.43422702    -0.79500
O145        O  0.25248875  0.91166346  0.30236370    -0.82200
C146        C  0.05590427  0.78974078  0.29350108     0.98500
C147        C  0.05390503  0.79422363  0.44848097     1.06000
O148        O  0.16373357  0.83862904  0.37263972    -1.11200
O149        O  0.24766776  0.93743068  0.42171266    -0.73700
O150        O  0.16245513  0.92153069  0.43045657    -0.77100
O151        O  0.05822758  0.75755574  0.32785484    -0.77800
C152        C  0.21172750  0.94594321  0.44403423     0.97400
O153        O  0.18973427  0.93505153  0.31176978    -0.76000
O154        O  0.23987003  0.83959990  0.44996575    -0.81000
C155        C  0.20838161  0.77223098  0.30504683     1.00100
C156        C  0.21755267  0.79111613  0.46054669     1.06000
O157        O  0.15779505  0.75269143  0.31377936    -0.76600
C158        C  0.23225093  0.93949333  0.28853383     1.04300
Fe159      Fe  0.37397847  0.63469479  0.12213976     1.65800
Fe160      Fe  0.25863722  0.64041318  0.12480995     1.73200
Fe161      Fe  0.37969670  0.75100265  0.13443348     1.54400
O162        O  0.44175555  0.75025128  0.17723170    -0.80400
O163        O  0.26409701  0.68677479  0.05876790    -0.78700
O164        O  0.41635270  0.66640389  0.19207973    -0.82900
O165        O  0.43681357  0.69285072  0.07083772    -0.77700
O166        O  0.34169631  0.74700031  0.20748557    -0.79500
O167        O  0.25094111  0.58108548  0.06921525    -0.82200
C168        C  0.44436220  0.73530845  0.04718083     0.98500
C169        C  0.44706981  0.71463478  0.20118682     1.06000
O170        O  0.33733414  0.67494820  0.12738745    -1.11200
O171        O  0.24934487  0.59268889  0.19044727    -0.73700
O172        O  0.31416985  0.57277064  0.17258408    -0.77100
O173        O  0.41899735  0.75838724  0.06167894    -0.77800
C174        C  0.27137520  0.56516209  0.19900597     0.97400
O175        O  0.33563661  0.59942777  0.05160177    -0.75800
O176        O  0.25619825  0.69453003  0.18125431    -0.81000
C177        C  0.28797003  0.73662945  0.05838329     1.00100
C178        C  0.29119057  0.72959847  0.21317907     1.06000
O179        O  0.32510046  0.76436951  0.09187152    -0.76600
C180        C  0.28544039  0.57358903  0.04228074     1.04300
C181        C  0.01126914  0.77992306  0.49094922    -0.15100
C182        C  0.48484749  0.76118041  0.00196876    -0.30300
H183        H  0.98880401  0.80081881  0.49113139     0.13900
H184        H  0.48950650  0.79736204  0.98434344     0.14500
C185        C  0.49073331  0.72931948  0.24050203    -0.15100
C186        C  0.01191746  0.77222225  0.25261558    -0.30300
H187        H  0.49181351  0.69790904  0.26336504     0.13900
H188        H  0.01665939  0.80012571  0.22028009     0.14500
C189        C  0.24441037  0.52271535  0.24135773    -0.15100
C190        C  0.26034146  0.97932589  0.24477933    -0.30300
H191        H  0.20905442  0.51917189  0.26305982     0.13900
H192        H  0.29440489  0.98053638  0.22268985     0.14500
C193        C  0.26940437  0.53312229  0.99906491    -0.15100
C194        C  0.22512766  0.98539372  0.48746134    -0.30300
H195        H  0.30077388  0.53844455  0.96939740     0.13900
H196        H  0.19126934  0.98664796  0.50710255     0.14500
C197        C  0.24356165  0.77571472  0.50381407    -0.15100
C198        C  0.27207847  0.76415471  0.01887804    -0.30300
H199        H  0.26809750  0.80486990  0.53407149     0.13900
H200        H  0.29300616  0.80685562  0.01995371     0.14500
C201        C  0.27477200  0.75394719  0.25713538    -0.15100
C202        C  0.22409705  0.74543388  0.26326628    -0.30300
H203        H  0.30637867  0.78193300  0.28378928     0.13900
H204        H  0.19233513  0.71708550  0.23700598     0.14500
Fe205      Fe  0.12594520  0.86503016  0.88275014     1.65800
Fe206      Fe  0.24061791  0.85921275  0.87730135     1.73200
Fe207      Fe  0.11963145  0.74892469  0.87388623     1.54400
O208        O  0.08617365  0.74482788  0.94908907    -0.80400
O209        O  0.23921029  0.80300639  0.82170822    -0.78700
O210        O  0.06427248  0.80710894  0.93515393    -0.82900
O211        O  0.08289321  0.83135388  0.81381498    -0.77700
O212        O  0.17723917  0.73680076  0.91186080    -0.79500
O213        O  0.24752859  0.90474025  0.81057823    -0.82200
C214        C  0.05028516  0.78282743  0.80856985     0.98500
C215        C  0.05885283  0.76648215  0.96127213     1.06000
O216        O  0.16231376  0.82494660  0.87790226    -1.11200
O217        O  0.25024705  0.92021636  0.93137118    -0.73700
O218        O  0.16588370  0.90154660  0.95214126    -0.77100
O219        O  0.05451322  0.74810351  0.83578992    -0.77800
C220        C  0.21648767  0.92812983  0.95922796     0.97400
O221        O  0.18462854  0.92650600  0.83084896    -0.76000
O222        O  0.23787398  0.81478343  0.94413850    -0.81000
C223        C  0.20254896  0.76814997  0.79082828     1.00100
C224        C  0.21505804  0.76500930  0.94446395     1.06000
O225        O  0.15244631  0.75135076  0.79853884    -0.76600
C226        C  0.22618557  0.93294338  0.80286772     1.04300
Fe227      Fe  0.37210503  0.63161621  0.62418332     1.65800
Fe228      Fe  0.25330549  0.62945081  0.62009086     1.73200
Fe229      Fe  0.37030889  0.74427259  0.62190187     1.54400
O230        O  0.43647301  0.75080832  0.66935266    -0.80400
O231        O  0.25407611  0.66620575  0.54865490    -0.78700
O232        O  0.41051950  0.66856664  0.69416515    -0.82900
O233        O  0.43506673  0.68941433  0.57258752    -0.77700
O234        O  0.33273764  0.74307082  0.69331887    -0.79500
O235        O  0.25038636  0.56815545  0.57138991    -0.82200
C236        C  0.43924747  0.72783645  0.54312682     0.98500
C237        C  0.44200608  0.71739193  0.69879885     1.06000
O238        O  0.33187326  0.66818372  0.62206238    -1.11200
O239        O  0.24781122  0.59025029  0.69105277    -0.73700
O240        O  0.31267977  0.57018162  0.67559929    -0.77100
O241        O  0.40920304  0.74745370  0.55067274    -0.77800
C242        C  0.27016309  0.56358317  0.70178862     0.97400
O243        O  0.33698177  0.59223161  0.55444641    -0.75800
O244        O  0.24751314  0.68627589  0.66934020    -0.81000
C245        C  0.27115553  0.71475400  0.54411444     1.00100
C246        C  0.28211195  0.72337349  0.69971738     1.06000
O247        O  0.30954861  0.74842762  0.57423639    -0.76600
C248        C  0.28702443  0.56334755  0.54519610     1.04300
C249        C  0.01800331  0.74087051  0.00583036    -0.15100
C250        C  0.48110882  0.75327425  0.49941940    -0.30300
H251        H  0.01823621  0.70953233  0.02970963     0.13900
H252        H  0.48231130  0.78587637  0.47666683     0.14500
C253        C  0.48613848  0.73317883  0.73949711    -0.15100
C254        C  0.00622250  0.76689025  0.76972480    -0.30300
H255        H  0.48231663  0.70298690  0.76839918     0.13900
H256        H  0.00644711  0.79763043  0.74429958     0.14500
C257        C  0.24343164  0.52320442  0.74588568    -0.15100
C258        C  0.25281325  0.97483729  0.75988000    -0.30300
H259        H  0.20928945  0.52171195  0.76813772     0.13900
H260        H  0.28735463  0.97738137  0.73740801     0.14500
C261        C  0.27366351  0.52288386  0.50281984    -0.15100
C262        C  0.23393055  0.96997952  0.00086721    -0.30300
H263        H  0.30717789  0.52635051  0.47759424     0.13900
H264        H  0.20417428  0.96456563  0.03260388     0.14500
C265        C  0.23240800  0.73797764  0.98294566    -0.15100
C266        C  0.24305956  0.73002000  0.50308630    -0.30300
H267        H  0.21151434  0.69527393  0.98190919     0.13900
H268        H  0.21908826  0.70130740  0.47220665     0.14500
C269        C  0.26549069  0.74686986  0.74360441    -0.15100
C270        C  0.21704090  0.74360738  0.74600669    -0.30300
H271        H  0.29588516  0.77027291  0.77382959     0.13900
H272        H  0.18638161  0.72035898  0.71596627     0.14500
Fe273      Fe  0.62509118  0.37035118  0.38053738     1.65800
Fe274      Fe  0.74632373  0.37699895  0.38525046     1.73200
Fe275      Fe  0.63293598  0.25969991  0.37176048     1.54400
O276        O  0.58340323  0.24645981  0.43862771    -0.80400
O277        O  0.76060560  0.32547484  0.33910929    -0.78700
O278        O  0.56362839  0.31084841  0.43169488    -0.82900
O279        O  0.58486755  0.33536942  0.31034375    -0.77700
O280        O  0.68920047  0.25628309  0.42576367    -0.79500
O281        O  0.75175632  0.41641995  0.31475579    -0.82200
C282        C  0.56129236  0.28794504  0.29594798     0.98500
C283        C  0.55623331  0.26769565  0.45333140     1.06000
O284        O  0.66757488  0.33553507  0.37898564    -1.11200
O285        O  0.74673021  0.43691492  0.43117546    -0.73700
O286        O  0.66039584  0.40971143  0.45096320    -0.77100
O287        O  0.57194252  0.25434873  0.31772927    -0.77800
C288        C  0.71036262  0.44135719  0.45733375     0.97400
O289        O  0.68340607  0.43236497  0.32924122    -0.76000
O290        O  0.74248137  0.33788871  0.45614681    -0.81000
C291        C  0.73237490  0.28904348  0.30568598     1.00100
C292        C  0.72480764  0.28892919  0.45890521     1.06000
O293        O  0.68097598  0.26715667  0.30464811    -0.76600
C294        C  0.72682049  0.44066490  0.30346238     1.04300
Fe295      Fe  0.87196308  0.13006102  0.12836915     1.65800
Fe296      Fe  0.74919654  0.12054309  0.12269013     1.73200
Fe297      Fe  0.86183770  0.23962569  0.13280459     1.54400
O298        O  0.92454745  0.24710339  0.18595892    -0.80400
O299        O  0.75008242  0.15923616  0.05214968    -0.78700
O300        O  0.90995293  0.16595820  0.19890296    -0.82900
O301        O  0.93346849  0.19004874  0.07745751    -0.77700
O302        O  0.81474409  0.23351390  0.20024665    -0.79500
O303        O  0.75112909  0.06288963  0.07449843    -0.82200
C304        C  0.93896400  0.23146385  0.05323411     0.98500
C305        C  0.93486009  0.21417196  0.21002669     1.06000
O306        O  0.82793943  0.16348839  0.12811259    -1.11200
O307        O  0.74469467  0.08018020  0.19292937    -0.73700
O308        O  0.81476811  0.06692443  0.17944266    -0.77100
O309        O  0.90988736  0.25127456  0.06541390    -0.77800
C310        C  0.77069602  0.05704901  0.20479575     0.97400
O311        O  0.83834651  0.09052911  0.05787220    -0.75800
O312        O  0.73452448  0.17103026  0.17032812    -0.81000
C313        C  0.76867628  0.20821618  0.04672632     1.00100
C314        C  0.76314997  0.20947539  0.20155849     1.06000
O315        O  0.80486590  0.24180732  0.07870672    -0.76600
C316        C  0.78867688  0.05995134  0.04869110     1.04300
C317        C  0.51447819  0.23928870  0.49726474    -0.15100
C318        C  0.98068487  0.25965593  0.00935381    -0.30300
H319        H  0.51193692  0.20424263  0.51557809     0.13900
H320        H  0.98214513  0.29377857  0.98986802     0.14500
C321        C  0.97776251  0.23045906  0.25199642    -0.15100
C322        C  0.51960431  0.27335026  0.25267549    -0.30300
H323        H  0.97161755  0.20237244  0.28467473     0.13900
H324        H  0.52143837  0.30491189  0.22738657     0.14500
C325        C  0.74634425  0.01656480  0.24919826    -0.15100
C326        C  0.75157503  0.48045886  0.25908595    -0.30300
H327        H  0.70859415  0.01005953  0.26813787     0.13900
H328        H  0.78732991  0.48421078  0.23803076     0.14500
C329        C  0.77543032  0.01935297  0.00711383    -0.15100
C330        C  0.72556593  0.48499174  0.49562729    -0.30300
H331        H  0.80887718  0.02142902  0.98293923     0.13900
H332        H  0.69340935  0.48438250  0.52082551     0.14500
C333        C  0.74914444  0.27103098  0.50091839    -0.15100
C334        C  0.74539200  0.22505304  0.00206400    -0.30300
H335        H  0.77216744  0.29823025  0.53332561     0.13900
H336        H  0.71731120  0.19509025  0.97432345     0.14500
C337        C  0.73458819  0.22698830  0.23928086    -0.15100
C338        C  0.76101912  0.27140327  0.26827417    -0.30300
H339        H  0.69048791  0.20341496  0.24207077     0.13900
H340        H  0.80514068  0.29483302  0.26579768     0.14500
Fe341      Fe  0.62743362  0.36875151  0.87049701     1.65800
Fe342      Fe  0.75050177  0.37904403  0.87563282     1.73200
Fe343      Fe  0.63824215  0.25966579  0.86658842     1.54400
O344        O  0.59108608  0.24880804  0.93444122    -0.80400
O345        O  0.76504356  0.32938009  0.82641108    -0.78700
O346        O  0.56594678  0.30847407  0.91944396    -0.82900
O347        O  0.59101604  0.33337386  0.79921643    -0.77700
O348        O  0.69572705  0.25762186  0.91986217    -0.79500
O349        O  0.75361570  0.41972176  0.80631432    -0.82200
C350        C  0.56521596  0.28487935  0.78940139     0.98500
C351        C  0.56123623  0.26813562  0.94498218     1.06000
O352        O  0.67192469  0.33576392  0.87080368    -1.11200
O353        O  0.74778054  0.43526590  0.92545015    -0.73700
O354        O  0.66029662  0.40732470  0.94165694    -0.77100
O355        O  0.57501872  0.25199181  0.81431968    -0.77800
C356        C  0.70993986  0.43741042  0.95166250     0.97400
O357        O  0.68367599  0.43269085  0.82148583    -0.76000
O358        O  0.75128432  0.34030319  0.94539926    -0.81000
C359        C  0.73612806  0.29027229  0.79601739     1.00100
C360        C  0.73254950  0.29135962  0.95115693     1.06000
O361        O  0.68454245  0.26532549  0.79868282    -0.76600
C362        C  0.72727023  0.44273881  0.79562060     1.04300
Fe363      Fe  0.87541466  0.12999070  0.62235701     1.65800
Fe364      Fe  0.75336926  0.12102870  0.61448007     1.73200
Fe365      Fe  0.86556323  0.23943762  0.62611017     1.54400
O366        O  0.92813289  0.24727919  0.67961877    -0.80400
O367        O  0.75629757  0.15893858  0.54283930    -0.78700
O368        O  0.91291890  0.16603952  0.69305033    -0.82900
O369        O  0.93727883  0.18974345  0.57162741    -0.77700
O370        O  0.81812963  0.23271079  0.69326391    -0.79500
O371        O  0.75531448  0.06148859  0.56929990    -0.82200
C372        C  0.94271959  0.23095316  0.54691747     0.98500
C373        C  0.93781648  0.21422389  0.70434195     1.06000
O374        O  0.83184251  0.16357282  0.62111774    -1.11200
O375        O  0.74788409  0.08261554  0.68577612    -0.73700
O376        O  0.81698528  0.06759156  0.67338367    -0.77100
O377        O  0.91366591  0.25092496  0.55871450    -0.77800
C378        C  0.77308193  0.05896509  0.69833446     0.97400
O379        O  0.84244202  0.09004805  0.55175610    -0.75800
O380        O  0.73840614  0.17269474  0.65997653    -0.81000
C381        C  0.77252583  0.20759773  0.53991604     1.00100
C382        C  0.76662986  0.21001556  0.69265405     1.06000
O383        O  0.80799615  0.24088696  0.57264952    -0.76600
C384        C  0.79283582  0.05779102  0.54434840     1.04300
C385        C  0.51938613  0.24117527  0.98840439    -0.15100
C386        C  0.98435229  0.25857937  0.50285906    -0.30300
H387        H  0.51647413  0.20645942  0.00803746     0.13900
H388        H  0.98534771  0.29201006  0.48220670     0.14500
C389        C  0.97976585  0.23011439  0.74743438    -0.15100
C390        C  0.52169393  0.26806050  0.74828354    -0.30300
H391        H  0.97644930  0.19963677  0.77558901     0.13900
H392        H  0.52740996  0.29556554  0.71511000     0.14500
C393        C  0.74782937  0.01937457  0.74300159    -0.15100
C394        C  0.75053909  0.48333810  0.75208629    -0.30300
H395        H  0.71126088  0.01500870  0.76277059     0.13900
H396        H  0.78880985  0.49057850  0.73377473     0.14500
C397        C  0.77956568  0.01443782  0.50612310    -0.15100
C398        C  0.72292306  0.47678961  0.99452057    -0.30300
H399        H  0.81160024  0.01784118  0.47854235     0.13900
H400        H  0.68916257  0.47525848  0.01758315     0.14500
C401        C  0.75619663  0.27467895  0.99559085    -0.15100
C402        C  0.74699116  0.22461295  0.49827485    -0.30300
H403        H  0.78432119  0.30467187  0.02327554     0.13900
H404        H  0.72401496  0.19734931  0.46590373     0.14500
C405        C  0.73795728  0.22779616  0.72983324    -0.15100
C406        C  0.76438383  0.27292799  0.75771968    -0.30300
H407        H  0.69393678  0.20374458  0.73332650     0.13900
H408        H  0.80837463  0.29709722  0.75385798     0.14500
Fe409      Fe  0.63386797  0.87091457  0.37705169     1.65800
Fe410      Fe  0.75145864  0.86921710  0.38485914     1.73200
Fe411      Fe  0.63372927  0.75725191  0.36243649     1.54400
O412        O  0.58640986  0.74400668  0.43068497    -0.80400
O413        O  0.76173783  0.82127822  0.32955299    -0.78700
O414        O  0.56906684  0.81002202  0.42324145    -0.82900
O415        O  0.59698644  0.84151930  0.30384643    -0.77700
O416        O  0.68433606  0.74317499  0.40990505    -0.79500
O417        O  0.76454388  0.92000427  0.32073624    -0.82200
C418        C  0.56975160  0.79394286  0.29055641     0.98500
C419        C  0.56016500  0.76631648  0.44472062     1.06000
O420        O  0.67306010  0.83275984  0.37493522    -1.11200
O421        O  0.75218794  0.92357820  0.44059526    -0.73700
O422        O  0.66644911  0.90486831  0.45035517    -0.77100
O423        O  0.57574358  0.75829989  0.31326017    -0.77800
C424        C  0.71576983  0.93046662  0.46350765     0.97400
O425        O  0.69516582  0.93481853  0.33088413    -0.76000
O426        O  0.74306258  0.81895745  0.44863176    -0.81000
C427        C  0.73163199  0.78725739  0.29472082     1.00100
C428        C  0.72022071  0.76920142  0.44497097     1.06000
O429        O  0.68040436  0.76706340  0.29432971    -0.76600
C430        C  0.74051014  0.94499825  0.30845264     1.04300
Fe431      Fe  0.86459303  0.62378718  0.12997979     1.65800
Fe432      Fe  0.74351503  0.61595879  0.11495980     1.73200
Fe433      Fe  0.85582275  0.73316960  0.12926596     1.54400
O434        O  0.91701968  0.74070134  0.18386965    -0.80400
O435        O  0.74953102  0.65475262  0.04296543    -0.78700
O436        O  0.89770168  0.65903281  0.20278357    -0.82900
O437        O  0.92937865  0.68432059  0.08296762    -0.77700
O438        O  0.80759218  0.72566010  0.19484677    -0.79500
O439        O  0.74742574  0.55795490  0.06969522    -0.82200
C440        C  0.93519775  0.72470796  0.05617234     0.98500
C441        C  0.92442396  0.70771911  0.21164310     1.06000
O442        O  0.82156030  0.65754235  0.12466049    -1.11200
O443        O  0.73434990  0.57602140  0.18649723    -0.73700
O444        O  0.80360323  0.56087041  0.17748630    -0.77100
O445        O  0.90451480  0.74363573  0.06351171    -0.77800
C446        C  0.75889303  0.55206877  0.20045844     0.97400
O447        O  0.83521490  0.58501887  0.05788999    -0.75800
O448        O  0.72809909  0.66773160  0.15928042    -0.81000
C449        C  0.76623253  0.70346126  0.04022086     1.00100
C450        C  0.75640440  0.70452333  0.19240709     1.06000
O451        O  0.80017640  0.73598583  0.07445631    -0.76600
C452        C  0.78597502  0.55494648  0.04618935     1.04300
C453        C  0.51772919  0.73905685  0.48768103    -0.15100
C454        C  0.97889948  0.75237029  0.01470755    -0.30300
H455        H  0.51619415  0.70592805  0.50960007     0.13900
H456        H  0.97853831  0.78340045  0.99033977     0.14500
C457        C  0.96638933  0.72503159  0.25469541    -0.15100
C458        C  0.52836603  0.77965018  0.24861087    -0.30300
H459        H  0.96187496  0.69651931  0.28617147     0.13900
H460        H  0.52707760  0.81112829  0.22613183     0.14500
C461        C  0.73284927  0.51215848  0.24467694    -0.15100
C462        C  0.76740478  0.98718390  0.26590077    -0.30300
H463        H  0.69696878  0.50843330  0.26538914     0.13900
H464        H  0.80512070  0.99347869  0.24710963     0.14500
C465        C  0.77389057  0.51485586  0.00429806    -0.15100
C466        C  0.73022535  0.97121867  0.50527128    -0.30300
H467        H  0.80777007  0.51637968  0.98149906     0.13900
H468        H  0.69798131  0.96818137  0.53226714     0.14500
C469        C  0.73525628  0.73903566  0.48135684    -0.15100
C470        C  0.74323170  0.72159658  0.99696556    -0.30300
H471        H  0.70719381  0.69695759  0.48572309     0.13900
H472        H  0.72120076  0.69490891  0.96384189     0.14500
C473        C  0.72896695  0.72421940  0.22794857    -0.15100
C474        C  0.75761761  0.76909486  0.25551833    -0.30300
H475        H  0.68483731  0.70181168  0.23128304     0.13900
H476        H  0.80176657  0.79126233  0.25222306     0.14500
Fe477      Fe  0.63276436  0.87499819  0.87182320     1.65800
Fe478      Fe  0.75250692  0.87964052  0.88474264     1.73200
Fe479      Fe  0.63934135  0.76393525  0.86382847     1.54400
O480        O  0.58742682  0.74988003  0.92843348    -0.80400
O481        O  0.76848348  0.82954107  0.83811785    -0.78700
O482        O  0.56789651  0.81424064  0.91842955    -0.82900
O483        O  0.59739842  0.84298860  0.79852552    -0.77700
O484        O  0.69230534  0.75737840  0.91986514    -0.79500
O485        O  0.76369739  0.92276350  0.81534716    -0.82200
C486        C  0.57228600  0.79535570  0.78478158     0.98500
C487        C  0.55968294  0.77110958  0.94084369     1.06000
O488        O  0.67444074  0.83947081  0.87314805    -1.11200
O489        O  0.75012666  0.93702672  0.93259653    -0.73700
O490        O  0.66286644  0.91069243  0.94521461    -0.77100
O491        O  0.58081402  0.76089463  0.80791289    -0.77800
C492        C  0.71209159  0.94014326  0.95694851     0.97400
O493        O  0.69480227  0.93854988  0.82507768    -0.76000
O494        O  0.74356407  0.83735485  0.95458531    -0.81000
C495        C  0.74161763  0.79479105  0.80260934     1.00100
C496        C  0.72561319  0.78837509  0.95561159     1.06000
O497        O  0.69037690  0.77350424  0.79898519    -0.76600
C498        C  0.73971782  0.94748860  0.80221371     1.04300
Fe499      Fe  0.86813038  0.62321130  0.63279486     1.65800
Fe500      Fe  0.75531875  0.63168459  0.61229067     1.73200
Fe501      Fe  0.87600327  0.74149545  0.63537555     1.54400
O502        O  0.92621434  0.73750009  0.69275060    -0.80400
O503        O  0.76916595  0.68129515  0.54598385    -0.78700
O504        O  0.90010979  0.65344546  0.70783222    -0.82900
O505        O  0.93827183  0.67872502  0.59189608    -0.77700
O506        O  0.82524686  0.73957934  0.69770777    -0.79500
O507        O  0.75554160  0.57595272  0.55981913    -0.82200
C508        C  0.95236119  0.72160072  0.56620636     0.98500
C509        C  0.92849115  0.70148790  0.71946073     1.06000
O510        O  0.83299597  0.66535974  0.62685594    -1.11200
O511        O  0.73533036  0.58062037  0.67838562    -0.73700
O512        O  0.80260340  0.56266158  0.67446471    -0.77100
O513        O  0.92839481  0.74781216  0.57281126    -0.77800
C514        C  0.75694443  0.55407581  0.69342468     0.97400
O515        O  0.83964023  0.58870648  0.55836055    -0.75800
O516        O  0.74448804  0.68176652  0.66353822    -0.81000
C517        C  0.79585997  0.73132206  0.54571029     1.00100
C518        C  0.77370052  0.71803338  0.69672680     1.06000
O519        O  0.83301890  0.75769648  0.57941034    -0.76600
C520        C  0.79143083  0.56604641  0.54120616     1.04300
C521        C  0.51674213  0.74319157  0.98351370    -0.15100
C522        C  0.99814171  0.74026106  0.52689687    -0.30300
H523        H  0.51225662  0.70712402  0.00126702     0.13900
H524        H  0.01992723  0.71870923  0.52571058     0.14500
C525        C  0.96779637  0.71642093  0.76366388    -0.15100
C526        C  0.53071961  0.78099688  0.74138978    -0.30300
H527        H  0.96782133  0.68552665  0.78855769     0.13900
H528        H  0.53450273  0.81182007  0.71349870     0.14500
C529        C  0.72842468  0.51183997  0.73516261    -0.15100
C530        C  0.76677174  0.98821311  0.75878280    -0.30300
H531        H  0.69011758  0.50497750  0.75290880     0.13900
H532        H  0.80334153  0.99246322  0.73915722     0.14500
C533        C  0.77677625  0.52497947  0.49980814    -0.15100
C534        C  0.72464649  0.97996779  0.99933791    -0.30300
H535        H  0.80931605  0.52510843  0.47578875     0.13900
H536        H  0.69107337  0.97789543  0.02325509     0.14500
C537        C  0.74691942  0.76869612  0.99895182    -0.15100
C538        C  0.78269859  0.76132960  0.50690273    -0.30300
H539        H  0.76892289  0.79517561  0.03224960     0.13900
H540        H  0.81081636  0.80338046  0.50233934     0.14500
C541        C  0.74527324  0.73545614  0.73439945    -0.15100
C542        C  0.77143529  0.77811567  0.76578739    -0.30300
H543        H  0.70106139  0.71306238  0.73505841     0.13900
H544        H  0.81562674  0.80051442  0.76556345     0.14500
loop_ 
_geom_bond_atom_site_label_1 
_geom_bond_atom_site_label_2 
_geom_bond_distance 
_geom_bond_site_symmetry_2 
_ccdc_geom_bond_type 
Fe1          O17   2.125       .  S
Fe1           O7   2.034       .  S
Fe1          O14   2.036       .  S
Fe1           O6   2.125       .  S
Fe1          O12   1.942       .  S
Fe2           O5   2.114       .  S
Fe2           O9   2.036       .  S
Fe2          O13   2.119       .  S
Fe2          O18   2.042       .  S
Fe2          O12   1.941       .  S
Fe3          O21   2.053       .  S
Fe3           O8   2.126       .  S
Fe3          O15   2.137       .  S
Fe3           O4   2.028       .  S
Fe3          O12   1.947       .  S
O4           C11   1.262       .  A
O5           C19   1.279       .  A
O6           C11   1.284       .  A
O7           C10   1.260       .  A
O8           C20   1.283       .  A
O9           C22   1.264       .  A
C10          O15   1.283       .  A
C10          C50   1.485       .  S
C11          C45   1.480       .  S
O13          C16   1.280       .  A
O14          C16   1.260       .  A
C16          C58   1.483       .  S
O17          C22   1.284       .  A
O18          C20   1.265       .  A
C19          O21   1.269       .  A
C19          C66   1.487       .  S
C20          C61   1.485       .  S
C22          C54   1.482       .  S
Fe23         O39   2.046       .  S
Fe23         O29   2.100       .  S
Fe23         O36   2.108       .  S
Fe23         O28   2.040       .  S
Fe23         O34   1.942       .  S
Fe24         O27   2.036       .  S
Fe24         O31   2.121       .  S
Fe24         O35   2.015       .  S
Fe24         O40   2.116       .  S
Fe24         O34   1.939       .  S
Fe25         O43   2.124       .  S
Fe25         O30   2.051       .  S
Fe25         O37   2.032       .  S
Fe25         O26   2.132       .  S
Fe25         O34   1.945       .  S
O26          C33   1.283       .  A
O27          C41   1.265       .  A
O28          C33   1.262       .  A
O29          C32   1.280       .  A
O30          C42   1.268       .  A
O31          C44   1.279       .  A
C32          O37   1.264       .  A
C32          C46   1.471       .  S
C33          C49   1.489       .  S
O35          C38   1.262       .  A
O36          C38   1.281       .  A
C38          C53   1.461       .  S
O39          C44   1.260       .  A
O40          C42   1.279       .  A
C41          O43   1.283       .  A
C41          C62   1.478   1_554  S
C42          C65   1.488       .  S
C44          C57   1.487   1_554  S
C45          H47   1.087       .  S
C45         C386   1.335   1_455  D
C46          H48   1.087   1_554  S
C46         C385   1.335   1_554  D
C49          H51   1.087       .  S
C49         C322   1.340       .  D
C50          H52   1.087       .  S
C50         C321   1.340   1_455  D
C53          H55   1.088       .  S
C53         C190   1.334   1_545  D
C54          H56   1.087       .  S
C54         C189   1.338       .  D
C57          H59   1.087       .  S
C57         C262   1.341   1_546  D
C58          H60   1.087       .  S
C58         C261   1.336       .  D
C61          H63   1.087       .  S
C61         C130   1.340       .  D
C62          H64   1.087       .  S
C62         C129   1.340   1_556  D
C65          H67   1.086       .  S
C65          C66   1.354       .  D
C66          H68   1.086       .  S
Fe69         O85   2.131       .  S
Fe69         O75   2.038       .  S
Fe69         O82   2.045       .  S
Fe69         O74   2.127       .  S
Fe69         O80   1.938       .  S
Fe70         O73   2.118       .  S
Fe70         O77   2.023       .  S
Fe70         O81   2.126       .  S
Fe70         O86   2.038       .  S
Fe70         O80   1.942       .  S
Fe71         O89   2.047       .  S
Fe71         O76   2.122       .  S
Fe71         O83   2.131       .  S
Fe71         O72   2.029       .  S
Fe71         O80   1.946       .  S
O72          C79   1.263       .  A
O73          C87   1.279       .  A
O74          C79   1.285       .  A
O75          C78   1.261       .  A
O76          C88   1.283       .  A
O77          C90   1.263       .  A
C78          O83   1.282       .  A
C78         C118   1.487       .  S
C79         C113   1.481       .  S
O81          C84   1.279       .  A
O82          C84   1.260       .  A
C84         C126   1.490       .  S
O85          C90   1.287       .  A
O86          C88   1.265       .  A
C87          O89   1.267       .  A
C87         C134   1.486       .  S
C88         C129   1.478   1_556  S
C90         C122   1.478       .  S
Fe91        O107   2.034       .  S
Fe91         O97   2.130       .  S
Fe91        O104   2.126       .  S
Fe91         O96   2.034       .  S
Fe91        O102   1.947       .  S
Fe92         O95   2.039       .  S
Fe92         O99   2.115       .  S
Fe92        O103   2.037       .  S
Fe92        O108   2.114       .  S
Fe92        O102   1.943       .  S
Fe93        O111   2.125       .  S
Fe93         O98   2.050       .  S
Fe93        O105   2.028       .  S
Fe93         O94   2.129       .  S
Fe93        O102   1.950       .  S
O94         C101   1.281       .  A
O95         C109   1.264       .  A
O96         C101   1.259       .  A
O97         C100   1.285       .  A
O98         C110   1.268       .  A
O99         C112   1.280       .  A
C100        O105   1.263       .  A
C100        C114   1.483       .  S
C101        C117   1.481       .  S
O103        C106   1.264       .  A
O104        C106   1.284       .  A
C106        C121   1.484       .  S
O107        C112   1.260       .  A
O108        C110   1.279       .  A
C109        O111   1.282       .  A
C109        C130   1.484       .  S
C110        C133   1.486       .  S
C112        C125   1.482       .  S
C113        H115   1.087   1_556  S
C113        C318   1.335   1_456  D
C114        H116   1.087       .  S
C114        C317   1.336       .  D
C117        H119   1.087       .  S
C117        C390   1.339       .  D
C118        H120   1.087       .  S
C118        C389   1.339   1_455  D
C121        H123   1.087       .  S
C121        C258   1.337   1_545  D
C122        H124   1.087       .  S
C122        C257   1.333       .  D
C125        H127   1.087       .  S
C125        C194   1.335   1_545  D
C126        H128   1.087   1_556  S
C126        C193   1.341       .  D
C129        H131   1.087       .  S
C130        H132   1.087       .  S
C133        H135   1.086       .  S
C133        C134   1.354       .  D
C134        H136   1.086       .  S
Fe137       O153   2.078       .  S
Fe137       O143   2.035       .  S
Fe137       O150   2.023       .  S
Fe137       O142   2.085       .  S
Fe137       O148   1.938       .  S
Fe138       O141   2.133       .  S
Fe138       O145   2.036       .  S
Fe138       O149   2.129       .  S
Fe138       O154   2.032       .  S
Fe138       O148   1.940       .  S
Fe139       O157   2.041       .  S
Fe139       O144   2.132       .  S
Fe139       O151   2.133       .  S
Fe139       O140   2.044       .  S
Fe139       O148   1.939       .  S
O140        C147   1.270       .  A
O141        C155   1.286       .  A
O142        C147   1.272       .  A
O143        C146   1.262       .  A
O144        C156   1.281       .  A
O145        C158   1.260       .  A
C146        O151   1.283       .  A
C146        C186   1.484       .  S
C147        C181   1.470       .  S
O149        C152   1.284       .  A
O150        C152   1.261       .  A
C152        C194   1.479       .  S
O153        C158   1.274       .  A
O154        C156   1.258       .  A
C155        O157   1.267       .  A
C155        C202   1.486       .  S
C156        C197   1.483       .  S
C158        C190   1.468       .  S
Fe159       O175   2.031       .  S
Fe159       O165   2.123       .  S
Fe159       O172   2.123       .  S
Fe159       O164   2.035       .  S
Fe159       O170   1.936       .  S
Fe160       O163   2.048       .  S
Fe160       O167   2.139       .  S
Fe160       O171   2.038       .  S
Fe160       O176   2.136       .  S
Fe160       O170   1.940       .  S
Fe161       O179   2.067       .  S
Fe161       O166   2.037       .  S
Fe161       O173   2.029       .  S
Fe161       O162   2.067       .  S
Fe161       O170   1.946       .  S
O162        C169   1.268       .  A
O163        C177   1.269       .  A
O164        C169   1.260       .  A
O165        C168   1.285       .  A
O166        C178   1.265       .  A
O167        C180   1.283       .  A
C168        O173   1.264       .  A
C168        C182   1.478       .  S
C169        C185   1.460       .  S
O171        C174   1.266       .  A
O172        C174   1.284       .  A
C174        C189   1.483       .  S
O175        C180   1.259       .  A
O176        C178   1.285       .  A
C177        O179   1.267       .  A
C177        C198   1.463       .  S
C178        C201   1.486       .  S
C180        C193   1.487   1_554  S
C181        H183   1.087   1_455  S
C181        C522   1.341   1_455  D
C182        H184   1.087   1_554  S
C182        C521   1.335   1_554  D
C185        H187   1.087       .  S
C185        C458   1.339       .  D
C186        H188   1.087       .  S
C186        C457   1.340   1_455  D
C189        H191   1.087       .  S
C190        H192   1.087       .  S
C193        H195   1.087       .  S
C194        H196   1.087       .  S
C197        H199   1.087       .  S
C197        C266   1.337       .  D
C198        H200   1.087       .  S
C198        C265   1.336   1_554  D
C201        H203   1.087       .  S
C201        C202   1.340       .  D
C202        H204   1.087       .  S
Fe205       O221   2.126       .  S
Fe205       O211   2.032       .  S
Fe205       O218   2.030       .  S
Fe205       O210   2.122       .  S
Fe205       O216   1.924       .  S
Fe206       O209   2.128       .  S
Fe206       O213   2.035       .  S
Fe206       O217   2.138       .  S
Fe206       O222   2.049       .  S
Fe206       O216   1.928       .  S
Fe207       O225   2.027       .  S
Fe207       O212   2.068       .  S
Fe207       O219   2.068       .  S
Fe207       O208   2.022       .  S
Fe207       O216   1.939       .  S
O208        C215   1.262       .  A
O209        C223   1.286       .  A
O210        C215   1.285       .  A
O211        C214   1.260       .  A
O212        C224   1.266       .  A
O213        C226   1.264       .  A
C214        O219   1.268       .  A
C214        C254   1.456       .  S
C215        C249   1.471   1_556  S
O217        C220   1.283       .  A
O218        C220   1.260       .  A
C220        C262   1.483   1_556  S
O221        C226   1.284       .  A
O222        C224   1.268       .  A
C223        O225   1.263       .  A
C223        C270   1.475       .  S
C224        C265   1.462       .  S
C226        C258   1.483       .  S
Fe227       O243   2.027       .  S
Fe227       O233   2.125       .  S
Fe227       O240   2.126       .  S
Fe227       O232   2.033       .  S
Fe227       O238   1.926       .  S
Fe228       O231   2.028       .  S
Fe228       O235   2.131       .  S
Fe228       O239   2.023       .  S
Fe228       O244   2.134       .  S
Fe228       O238   1.933       .  S
Fe229       O247   2.143       .  S
Fe229       O234   2.016       .  S
Fe229       O241   2.017       .  S
Fe229       O230   2.143       .  S
Fe229       O238   1.935       .  S
O230        C237   1.283       .  A
O231        C245   1.259       .  A
O232        C237   1.260       .  A
O233        C236   1.285       .  A
O234        C246   1.260       .  A
O235        C248   1.283       .  A
C236        O241   1.262       .  A
C236        C250   1.471       .  S
C237        C253   1.488       .  S
O239        C242   1.261       .  A
O240        C242   1.284       .  A
C242        C257   1.478       .  S
O243        C248   1.260       .  A
O244        C246   1.285       .  A
C245        O247   1.284       .  A
C245        C266   1.484       .  S
C246        C269   1.471       .  S
C248        C261   1.481       .  S
C249        H251   1.087       .  S
C249        C454   1.331   1_455  D
C250        H252   1.087       .  S
C250        C453   1.332       .  D
C253        H255   1.087       .  S
C253        C526   1.341       .  D
C254        H256   1.087       .  S
C254        C525   1.340   1_455  D
C257        H259   1.087       .  S
C258        H260   1.087       .  S
C261        H263   1.087       .  S
C262        H264   1.087       .  S
C265        H267   1.087       .  S
C266        H268   1.087       .  S
C269        H271   1.088       .  S
C269        C270   1.333       .  D
C270        H272   1.087       .  S
Fe273       O289   2.121       .  S
Fe273       O279   2.038       .  S
Fe273       O286   2.042       .  S
Fe273       O278   2.120       .  S
Fe273       O284   1.938       .  S
Fe274       O277   2.087       .  S
Fe274       O281   2.018       .  S
Fe274       O285   2.088       .  S
Fe274       O290   2.031       .  S
Fe274       O284   1.947       .  S
Fe275       O293   2.052       .  S
Fe275       O280   2.119       .  S
Fe275       O287   2.129       .  S
Fe275       O276   2.038       .  S
Fe275       O284   1.944       .  S
O276        C283   1.264       .  A
O277        C291   1.271       .  A
O278        C283   1.284       .  A
O279        C282   1.261       .  A
O280        C292   1.283       .  A
O281        C294   1.264       .  A
C282        O287   1.282       .  A
C282        C322   1.488       .  S
C283        C317   1.484       .  S
O285        C288   1.270       .  A
O286        C288   1.260       .  A
C288        C330   1.473       .  S
O289        C294   1.286       .  A
O290        C292   1.265       .  A
C291        O293   1.268       .  A
C291        C338   1.475       .  S
C292        C333   1.472       .  S
C294        C326   1.469       .  S
Fe295       O311   2.035       .  S
Fe295       O301   2.123       .  S
Fe295       O308   2.123       .  S
Fe295       O300   2.033       .  S
Fe295       O306   1.943       .  S
Fe296       O299   2.039       .  S
Fe296       O303   2.091       .  S
Fe296       O307   2.033       .  S
Fe296       O312   2.088       .  S
Fe296       O306   1.948       .  S
Fe297       O315   2.122       .  S
Fe297       O302   2.051       .  S
Fe297       O309   2.032       .  S
Fe297       O298   2.134       .  S
Fe297       O306   1.948       .  S
O298        C305   1.282       .  A
O299        C313   1.266       .  A
O300        C305   1.260       .  A
O301        C304   1.284       .  A
O302        C314   1.269       .  A
O303        C316   1.273       .  A
C304        O309   1.262       .  A
C304        C318   1.482       .  S
C305        C321   1.484       .  S
O307        C310   1.265       .  A
O308        C310   1.284       .  A
C310        C325   1.480       .  S
O311        C316   1.260       .  A
O312        C314   1.272       .  A
C313        O315   1.283       .  A
C313        C334   1.481       .  S
C314        C337   1.475       .  S
C316        C329   1.470       .  S
C317        H319   1.087       .  S
C318        H320   1.087   1_554  S
C321        H323   1.087       .  S
C322        H324   1.087       .  S
C325        H327   1.087       .  S
C325        C462   1.338   1_545  D
C326        H328   1.087       .  S
C326        C461   1.332       .  D
C329        H331   1.087   1_554  S
C329        C534   1.338   1_544  D
C330        H332   1.087       .  S
C330        C533   1.341       .  D
C333        H335   1.087       .  S
C333        C402   1.338       .  D
C334        H336   1.087   1_554  S
C334        C401   1.339   1_554  D
C337        H339   1.087       .  S
C337        C338   1.344       .  D
C338        H340   1.087       .  S
Fe341       O357   2.098       .  S
Fe341       O347   2.032       .  S
Fe341       O354   2.035       .  S
Fe341       O346   2.100       .  S
Fe341       O352   1.944       .  S
Fe342       O345   2.088       .  S
Fe342       O349   2.030       .  S
Fe342       O353   2.089       .  S
Fe342       O358   2.038       .  S
Fe342       O352   1.943       .  S
Fe343       O361   2.050       .  S
Fe343       O348   2.119       .  S
Fe343       O355   2.130       .  S
Fe343       O344   2.030       .  S
Fe343       O352   1.946       .  S
O344        C351   1.262       .  A
O345        C359   1.273       .  A
O346        C351   1.279       .  A
O347        C350   1.260       .  A
O348        C360   1.282       .  A
O349        C362   1.264       .  A
C350        O355   1.282       .  A
C350        C390   1.480       .  S
C351        C385   1.471       .  S
O353        C356   1.273       .  A
O354        C356   1.261       .  A
C356        C398   1.469       .  S
O357        C362   1.277       .  A
O358        C360   1.265       .  A
C359        O361   1.269       .  A
C359        C406   1.474       .  S
C360        C401   1.481       .  S
C362        C394   1.465       .  S
Fe363       O379   2.038       .  S
Fe363       O369   2.122       .  S
Fe363       O376   2.124       .  S
Fe363       O368   2.034       .  S
Fe363       O374   1.935       .  S
Fe364       O367   2.034       .  S
Fe364       O371   2.098       .  S
Fe364       O375   2.018       .  S
Fe364       O380   2.093       .  S
Fe364       O374   1.943       .  S
Fe365       O383   2.117       .  S
Fe365       O370   2.047       .  S
Fe365       O377   2.034       .  S
Fe365       O366   2.133       .  S
Fe365       O374   1.941       .  S
O366        C373   1.282       .  A
O367        C381   1.265       .  A
O368        C373   1.260       .  A
O369        C372   1.284       .  A
O370        C382   1.269       .  A
O371        C384   1.273       .  A
C372        O377   1.263       .  A
C372        C386   1.481       .  S
C373        C389   1.486       .  S
O375        C378   1.262       .  A
O376        C378   1.286       .  A
C378        C393   1.471       .  S
O379        C384   1.259       .  A
O380        C382   1.273       .  A
C381        O383   1.282       .  A
C381        C402   1.473       .  S
C382        C405   1.474       .  S
C384        C397   1.474       .  S
C385        H387   1.087   1_556  S
C386        H388   1.087       .  S
C389        H391   1.087       .  S
C390        H392   1.087       .  S
C393        H395   1.087       .  S
C393        C530   1.331   1_545  D
C394        H396   1.087       .  S
C394        C529   1.341       .  D
C397        H399   1.087       .  S
C397        C466   1.339   1_545  D
C398        H400   1.087   1_556  S
C398        C465   1.338   1_556  D
C401        H403   1.087   1_556  S
C402        H404   1.087       .  S
C405        H407   1.087       .  S
C405        C406   1.345       .  D
C406        H408   1.087       .  S
Fe409       O425   2.110       .  S
Fe409       O415   2.039       .  S
Fe409       O422   2.038       .  S
Fe409       O414   2.112       .  S
Fe409       O420   1.940       .  S
Fe410       O413   2.077       .  S
Fe410       O417   2.044       .  S
Fe410       O421   2.095       .  S
Fe410       O426   2.057       .  S
Fe410       O420   1.947       .  S
Fe411       O429   2.033       .  S
Fe411       O416   2.049       .  S
Fe411       O423   2.059       .  S
Fe411       O412   2.029       .  S
Fe411       O420   1.949       .  S
O412        C419   1.263       .  A
O413        C427   1.272       .  A
O414        C419   1.283       .  A
O415        C418   1.259       .  A
O416        C428   1.263       .  A
O417        C430   1.266       .  A
C418        O423   1.266       .  A
C418        C458   1.461       .  S
C419        C453   1.473       .  S
O421        C424   1.274       .  A
O422        C424   1.260       .  A
C424        C466   1.472       .  S
O425        C430   1.282       .  A
O426        C428   1.272       .  A
C427        O429   1.267       .  A
C427        C474   1.458       .  S
C428        C469   1.458       .  S
C430        C462   1.482       .  S
Fe431       O447   2.041       .  S
Fe431       O437   2.118       .  S
Fe431       O444   2.110       .  S
Fe431       O436   2.041       .  S
Fe431       O442   1.930       .  S
Fe432       O435   2.035       .  S
Fe432       O439   2.086       .  S
Fe432       O443   2.026       .  S
Fe432       O448   2.087       .  S
Fe432       O442   1.941       .  S
Fe433       O451   2.111       .  S
Fe433       O438   2.026       .  S
Fe433       O445   2.018       .  S
Fe433       O434   2.121       .  S
Fe433       O442   1.933       .  S
O434        C441   1.279       .  A
O435        C449   1.263       .  A
O436        C441   1.261       .  A
O437        C440   1.283       .  A
O438        C450   1.266       .  A
O439        C452   1.273       .  A
C440        O445   1.261       .  A
C440        C454   1.470       .  S
C441        C457   1.483       .  S
O443        C446   1.263       .  A
O444        C446   1.283       .  A
C446        C461   1.471       .  S
O447        C452   1.262       .  A
O448        C450   1.272       .  A
C449        O451   1.280       .  A
C449        C470   1.473   1_554  S
C450        C473   1.462       .  S
C452        C465   1.470       .  S
C453        H455   1.087       .  S
C454        H456   1.087   1_554  S
C457        H459   1.087       .  S
C458        H460   1.087       .  S
C461        H463   1.087       .  S
C462        H464   1.087       .  S
C465        H467   1.087   1_554  S
C466        H468   1.087       .  S
C469        H471   1.087       .  S
C469        C538   1.331       .  D
C470        H472   1.087       .  S
C470        C537   1.337       .  D
C473        H475   1.087       .  S
C473        C474   1.341       .  D
C474        H476   1.087       .  S
Fe477       O493   2.120       .  S
Fe477       O483   2.043       .  S
Fe477       O490   2.041       .  S
Fe477       O482   2.116       .  S
Fe477       O488   1.935       .  S
Fe478       O481   2.085       .  S
Fe478       O485   2.022       .  S
Fe478       O489   2.085       .  S
Fe478       O494   2.029       .  S
Fe478       O488   1.946       .  S
Fe479       O497   2.047       .  S
Fe479       O484   2.118       .  S
Fe479       O491   2.126       .  S
Fe479       O480   2.033       .  S
Fe479       O488   1.941       .  S
O480        C487   1.264       .  A
O481        C495   1.271       .  A
O482        C487   1.283       .  A
O483        C486   1.261       .  A
O484        C496   1.282       .  A
O485        C498   1.263       .  A
C486        O491   1.281       .  A
C486        C526   1.489       .  S
C487        C521   1.479       .  S
O489        C492   1.271       .  A
O490        C492   1.259       .  A
C492        C534   1.471       .  S
O493        C498   1.286       .  A
O494        C496   1.263       .  A
C495        O497   1.269       .  A
C495        C542   1.472       .  S
C496        C537   1.471       .  S
C498        C530   1.473       .  S
Fe499       O515   2.045       .  S
Fe499       O505   2.070       .  S
Fe499       O512   2.063       .  S
Fe499       O504   2.045       .  S
Fe499       O510   1.950       .  S
Fe500       O503   2.059       .  S
Fe500       O507   2.087       .  S
Fe500       O511   2.056       .  S
Fe500       O516   2.071       .  S
Fe500       O510   1.952       .  S
Fe501       O519   2.043       .  S
Fe501       O506   2.060       .  S
Fe501       O513   2.056       .  S
Fe501       O502   2.049       .  S
Fe501       O510   1.953       .  S
O502        C509   1.266       .  A
O503        C517   1.272       .  A
O504        C509   1.262       .  A
O505        C508   1.270       .  A
O506        C518   1.272       .  A
O507        C520   1.274       .  A
C508        O513   1.270       .  A
C508        C522   1.467       .  S
C509        C525   1.460       .  S
O511        C514   1.266       .  A
O512        C514   1.272       .  A
C514        C529   1.474       .  S
O515        C520   1.263       .  A
O516        C518   1.271       .  A
C517        O519   1.262       .  A
C517        C538   1.460       .  S
C518        C541   1.470       .  S
C520        C533   1.471       .  S
C521        H523   1.087   1_556  S
C522        H524   1.087   1_655  S
C525        H527   1.087       .  S
C526        H528   1.087       .  S
C529        H531   1.087       .  S
C530        H532   1.087       .  S
C533        H535   1.087       .  S
C534        H536   1.087   1_556  S
C537        H539   1.087   1_556  S
C538        H540   1.087       .  S
C541        H543   1.087       .  S
C541        C542   1.341       .  D
C542        H544   1.087       .  S
