geometry optimzed in LAMMPS
_audit_creation_date              2020-11-30 
_audit_creation_method            'lammps2cif' 
_symmetry_space_group_name_H-M    'P1' 
_symmetry_Int_Tables_number       1 
_symmetry_cell_setting            triclinic 
loop_ 
_symmetry_equiv_pos_as_xyz 
  x,y,z 
_cell_length_a                    47.05002696 
_cell_length_b                    23.97252796925164 
_cell_length_c                    28.259742960352522 
_cell_angle_alpha                 88.42061076361115 
_cell_angle_beta                  90.19225256261007 
_cell_angle_gamma                 89.40921156768499 
loop_ 
_atom_site_label 
_atom_site_type_symbol 
_atom_site_fract_x 
_atom_site_fract_y 
_atom_site_fract_z 
_atom_site_charge 
O1          O  0.06343284  0.86539597  0.37558640    -0.56700
C2          C  0.10601460  0.69848866  0.29969641     0.75900
O3          O  0.13862219  0.75033961  0.40721950    -0.57800
C4          C  0.07312332  0.89148938  0.33986551     0.75900
C5          C  0.06113504  0.74802575  0.45070825     0.78300
Cd6        Cd  0.09432647  0.78176857  0.37024907     1.37500
O7          O  0.08347606  0.69532052  0.32403522    -0.56700
O8          O  0.05044869  0.74823266  0.40937565    -0.55500
C9          C  0.14975416  0.79801191  0.40884502     0.78300
O10         O  0.08732206  0.75907133  0.45353778    -0.57900
O11         O  0.12074242  0.74151627  0.30512064    -0.56300
O12         O  0.09046431  0.86451966  0.31486401    -0.56300
O13         O  0.13425787  0.83907199  0.39576329    -0.55500
O14         O  0.39181287  0.76692958  0.31023892    -0.56700
C15         C  0.43734791  0.92384293  0.36433025     0.75900
O16         O  0.37652002  0.79603836  0.42593068    -0.57800
C17         C  0.40835247  0.72682624  0.30162145     0.75900
C18         C  0.44859425  0.75634512  0.45340678     0.78300
Cd19       Cd  0.41790103  0.80836845  0.37473720     1.37500
O20         O  0.44166087  0.89006274  0.33118928    -0.56700
O21         O  0.46141438  0.77606717  0.41731011    -0.55500
C22         C  0.35962895  0.82411807  0.39935493     0.78300
O23         O  0.42172844  0.75873221  0.45199325    -0.57900
O24         O  0.42557676  0.90333086  0.40076758    -0.56300
O25         O  0.43193042  0.72642096  0.32341518    -0.56300
O26         O  0.37017036  0.84649564  0.36243789    -0.55500
C27         C  0.14999532  0.60367103  0.21903253     0.87600
C28         C  0.14274903  0.55256429  0.25096133    -0.52600
C29         C  0.11578968  0.55205265  0.26854643     0.10500
C30         C  0.09802732  0.60373181  0.25327039     0.21500
C31         C  0.12635547  0.60535094  0.18078159    -0.53300
C32         C  0.09900517  0.60500439  0.19850813     0.10600
C33         C  0.14286596  0.65330158  0.25041693    -0.52900
C34         C  0.11580756  0.65406010  0.26783846     0.11200
H35         H  0.15776038  0.52000135  0.26135985     0.15700
H36         H  0.07642179  0.60461271  0.26875488     0.01500
H37         H  0.13097738  0.60628434  0.14317627     0.16000
H38         H  0.15828158  0.68494587  0.25894875     0.15800
C39         C  0.36446100  0.63056252  0.22360376     0.87600
C40         C  0.37203485  0.68180182  0.25224345    -0.52600
C41         C  0.39913206  0.68221048  0.26965231     0.10500
C42         C  0.41683355  0.63053171  0.25625694     0.21500
C43         C  0.38743012  0.62954430  0.18434973    -0.53300
C44         C  0.41497451  0.62976057  0.20151552     0.10600
C45         C  0.37229249  0.58015165  0.25579627    -0.52900
C46         C  0.39930745  0.57979381  0.27346582     0.11200
H47         H  0.35662429  0.71458642  0.25929419     0.15700
H48         H  0.43882589  0.63036408  0.27064488     0.01500
H49         H  0.38270984  0.62984694  0.14679318     0.16000
H50         H  0.35709563  0.54778239  0.26489846     0.15800
O51         O  0.12446142  0.47078718  0.31677635    -0.56700
C52         C  0.07470559  0.30793481  0.35171831     0.75900
O53         O  0.13677124  0.42664948  0.42470100    -0.57800
C54         C  0.10664915  0.50669339  0.30176229     0.75900
C55         C  0.06191526  0.46276007  0.44908657     0.78300
Cd56       Cd  0.09520518  0.41881488  0.37228085     1.37500
O57         O  0.07774497  0.34394367  0.31843730    -0.56700
O58         O  0.05020278  0.44861828  0.41080148    -0.55500
C59         C  0.15257084  0.39374843  0.40200656     0.78300
O60         O  0.08871273  0.45799012  0.45083872    -0.57900
O61         O  0.07917880  0.32487956  0.39295155    -0.56300
O62         O  0.08156637  0.50139577  0.31728909    -0.56300
O63         O  0.14120648  0.37019226  0.36728362    -0.55500
O64         O  0.43272369  0.37316704  0.33172782    -0.56700
C65         C  0.40853872  0.53594271  0.30870270     0.75900
O66         O  0.37429760  0.46965981  0.42416415    -0.57800
C67         C  0.44404553  0.34242328  0.36389587     0.75900
C68         C  0.45016333  0.49811333  0.46337846     0.78300
Cd69       Cd  0.42005665  0.45230633  0.38410116     1.37500
O70         O  0.43335192  0.53198757  0.32611219    -0.56700
O71         O  0.46180081  0.49471762  0.42311344    -0.55500
C72         C  0.36338666  0.42337785  0.41400374     0.78300
O73         O  0.42455609  0.48274642  0.46589153    -0.57900
O74         O  0.39098918  0.50051168  0.32409606    -0.56300
O75         O  0.44705289  0.36472055  0.40357231    -0.56300
O76         O  0.37929133  0.38968435  0.39254614    -0.55500
O77         O  0.90034761  0.37500917  0.85308004    -0.56700
C78         C  0.90805555  0.54861040  0.90210652     0.75900
O79         O  0.92413118  0.50418987  0.74418671    -0.57800
C80         C  0.92492053  0.35343679  0.85533975     0.75900
C81         C  0.85715906  0.47383947  0.78838025     0.78300
Cd82       Cd  0.91403433  0.47019729  0.82564081     1.37500
O83         O  0.89737657  0.50049560  0.90293335    -0.56700
O84         O  0.87451220  0.43628078  0.77592788    -0.55500
C85         C  0.95094746  0.50116814  0.74728051     0.78300
O86         O  0.86712974  0.51156817  0.81379699    -0.57900
O87         O  0.92519491  0.55911599  0.86869836    -0.56300
O88         O  0.94514736  0.38659077  0.84669404    -0.56300
O89         O  0.96090318  0.48638402  0.78747605    -0.55500
O90         O  0.55830293  0.35980167  0.85011393    -0.56700
C91         C  0.60277673  0.52109143  0.91530412     0.75900
O92         O  0.63279050  0.48135438  0.80210639    -0.57800
C93         C  0.57419461  0.32606807  0.87336310     0.75900
C94         C  0.56098687  0.47033987  0.76104031     0.78300
Cd95       Cd  0.59314894  0.43770441  0.84397640     1.37500
O96         O  0.61844861  0.47871399  0.90977959    -0.56700
O97         O  0.55329955  0.48660528  0.80147583    -0.55500
C98         C  0.64824833  0.43809364  0.80003806     0.78300
O99         O  0.58281015  0.43917478  0.76009331    -0.57900
O100        O  0.57983265  0.52261667  0.89169428    -0.56300
O101        O  0.59731337  0.34600271  0.88786198    -0.56300
O102        O  0.63767491  0.39340011  0.81672936    -0.55500
O103        O  0.57811132  0.72099146  0.88826236    -0.56700
C104        C  0.57136527  0.90999347  0.84496926     0.75900
O105        O  0.63108899  0.78725246  0.77104800    -0.57800
C106        C  0.60378925  0.71242417  0.90025313     0.75900
C107        C  0.55539561  0.74843515  0.75346775     0.78300
Cd108      Cd  0.59062515  0.79639482  0.82599510     1.37500
O109        O  0.57354248  0.87338505  0.87810002    -0.56700
O110        O  0.54459793  0.76938448  0.79007626    -0.55500
C111        C  0.64672499  0.82149046  0.79212045     0.78300
O112        O  0.58224411  0.74816983  0.75140327    -0.57900
O113        O  0.57587679  0.89278012  0.80375649    -0.56300
O114        O  0.62177765  0.74305607  0.87965250    -0.56300
O115        O  0.63576812  0.84542827  0.82708248    -0.55500
O116        O  0.91156187  0.90450991  0.87793149    -0.56700
C117        C  0.90368731  0.73757171  0.90094474     0.75900
O118        O  0.87038167  0.78519327  0.78697490    -0.57800
C119        C  0.93002598  0.93305925  0.85611779     0.75900
C120        C  0.94469571  0.78849299  0.74362391     0.78300
Cd121      Cd  0.91258958  0.82234281  0.82550541     1.37500
O122        O  0.92780666  0.74143583  0.88121657    -0.56700
O123        O  0.95247147  0.77349500  0.78517020    -0.55500
C124        C  0.85662476  0.83080918  0.78519812     0.78300
O125        O  0.92256262  0.81876172  0.74064377    -0.57900
O126        O  0.88544260  0.77377513  0.88782574    -0.56300
O127        O  0.94276537  0.90828386  0.82330513    -0.56300
O128        O  0.86944294  0.87317976  0.79980057    -0.55500
C129        C  0.64800775  0.62106516  0.98773259     0.87600
C130        C  0.64052204  0.66889942  0.95259877    -0.52600
C131        C  0.61329175  0.66938986  0.93589037     0.10500
C132        C  0.59534133  0.62084331  0.95605111     0.21500
C133        C  0.62519688  0.62604668  0.02714991    -0.53300
C134        C  0.59759476  0.62581825  0.01026628     0.10600
C135        C  0.63960682  0.56770660  0.96254103    -0.52900
C136        C  0.61242338  0.56724496  0.94538964     0.11200
H137        H  0.65596483  0.69998727  0.94151371     0.15700
H138        H  0.57317717  0.62074663  0.94238271     0.01500
H139        H  0.63002056  0.62877229  0.06453726     0.16000
H140        H  0.65456418  0.53363608  0.95722835     0.15800
C141        C  0.86395250  0.63760515  0.98709584     0.87600
C142        C  0.87196430  0.58886761  0.95496090    -0.52600
C143        C  0.89865264  0.59083826  0.93630552     0.10500
C144        C  0.91538441  0.64255388  0.95069432     0.21500
C145        C  0.88811963  0.63764038  0.02437671    -0.53300
C146        C  0.91526584  0.63976150  0.00570161     0.10600
C147        C  0.86943506  0.68946266  0.95503001    -0.52900
C148        C  0.89614752  0.69270393  0.93623981     0.11200
H149        H  0.85726683  0.55663402  0.94503300     0.15700
H150        H  0.93674002  0.64499699  0.93432693     0.01500
H151        H  0.88387080  0.63321199  0.06196177     0.16000
H152        H  0.85300049  0.71985011  0.94556524     0.15800
C153        C  0.72922891  0.61616466  0.96909575    -0.27100
C154        C  0.74062612  0.62642595  0.01380926     0.06500
C155        C  0.72158834  0.63413234  0.05163702     0.26200
C156        C  0.69178241  0.63132751  0.04447550    -0.11600
C157        C  0.68028731  0.62154210  0.99920229    -0.25500
C158        C  0.69980963  0.61430068  0.96165819     0.37000
C159        C  0.77240052  0.62853181  0.01916846     0.06500
F160        F  0.73179221  0.64396295  0.09554241    -0.19300
H161        H  0.67793566  0.63773406  0.07429626     0.16400
F162        F  0.69037559  0.60599533  0.91695142    -0.23000
H163        H  0.74331096  0.61029411  0.93934229     0.18200
C164        C  0.78895827  0.57979037  0.01532064     0.26200
C165        C  0.81865156  0.58255963  0.01018187    -0.11500
C166        C  0.83290525  0.63424967  0.00659711    -0.25600
C167        C  0.81644763  0.68258973  0.01631517     0.37100
C168        C  0.78662307  0.67967059  0.02171538    -0.27200
F169        F  0.77622627  0.52927212  0.01463265    -0.19300
H170        H  0.83023033  0.54366366  0.00731407     0.16400
F171        F  0.82888964  0.73317655  0.01935701    -0.23000
H172        H  0.77447526  0.71784167  0.02573885     0.18200
C173        C  0.71883961  0.80640787  0.73399613    -0.27100
C174        C  0.73569654  0.83904401  0.76328376     0.06500
C175        C  0.72261506  0.86990310  0.79891676     0.26200
C176        C  0.69339557  0.86614897  0.80629697    -0.11600
C177        C  0.67666135  0.83122729  0.77867646    -0.25500
C178        C  0.68955600  0.80240800  0.74152073     0.37000
C179        C  0.76705054  0.83695698  0.75982145     0.06500
F180        F  0.73832125  0.90074635  0.82873653    -0.19300
H181        H  0.68409980  0.88876709  0.83516843     0.16400
F182        F  0.67418107  0.76872225  0.71359815    -0.23000
H183        H  0.72852709  0.78272858  0.70610291     0.18200
C184        C  0.78159477  0.78544087  0.76276119     0.26200
C185        C  0.81111378  0.78385941  0.76758062    -0.11500
C186        C  0.82658920  0.83348462  0.77007306    -0.25600
C187        C  0.81224718  0.88496601  0.76369394     0.37100
C188        C  0.78270007  0.88651882  0.75859162    -0.27200
F189        F  0.76715769  0.73669472  0.76481152    -0.19300
H190        H  0.82163142  0.74369037  0.77237330     0.16400
F191        F  0.82655451  0.93382982  0.76427982    -0.23000
H192        H  0.77188257  0.92656281  0.75552342     0.18200
C193        C  0.58129305  0.17108216  0.90482258    -0.27100
C194        C  0.56068650  0.14831048  0.87506378     0.06500
C195        C  0.54205149  0.18493145  0.85012337     0.26200
C196        C  0.54530467  0.24288510  0.85249257    -0.11600
C197        C  0.56728165  0.26571503  0.87951939    -0.25500
C198        C  0.58469678  0.22905336  0.90697663     0.37000
C199        C  0.56039600  0.08690508  0.86748884     0.06500
F200        F  0.52112551  0.16468004  0.82244071    -0.19300
H201        H  0.53144767  0.26982851  0.83117547     0.16400
F202        F  0.60586455  0.24892568  0.93434497    -0.23000
H203        H  0.59578551  0.14383847  0.92462012     0.18200
C204        C  0.56247247  0.06604297  0.82153565     0.26200
C205        C  0.56480380  0.00854014  0.81467553    -0.11500
C206        C  0.56534824  0.97019839  0.85331755    -0.25600
C207        C  0.56262179  0.99098731  0.89930153     0.37100
C208        C  0.56027486  0.04870204  0.90616348    -0.27200
F209        F  0.56394509  0.10140338  0.78327926    -0.19300
H210        H  0.56718227  0.99416900  0.77888568     0.16400
F211        F  0.56311100  0.95585953  0.93777646    -0.23000
H212        H  0.55881065  0.06372151  0.94188613     0.18200
C213        C  0.92151811  0.07808903  0.90661277    -0.27100
C214        C  0.93693191  0.11134248  0.87402873     0.06500
C215        C  0.95283120  0.08396756  0.83906888     0.26200
C216        C  0.95195909  0.02570232  0.83554044    -0.11600
C217        C  0.93491708  0.99308566  0.86604661    -0.25500
C218        C  0.92010231  0.02000346  0.90234251     0.37000
C219        C  0.93467388  0.17401693  0.87446413     0.06500
F220        F  0.96778081  0.11349201  0.80611644    -0.19300
H221        H  0.96351211  0.00642470  0.80710112     0.16400
F222        F  0.90326331  0.99063694  0.93270133    -0.23000
H223        H  0.90982749  0.09719936  0.93494542     0.18200
C224        C  0.90827151  0.20097093  0.88178690     0.26200
C225        C  0.90572851  0.25919218  0.87759537    -0.11500
C226        C  0.92919329  0.29247786  0.86557060    -0.25600
C227        C  0.95579498  0.26602772  0.85991859     0.37100
C228        C  0.95847184  0.20769354  0.86480290    -0.27200
F229        F  0.88437867  0.17116842  0.89036347    -0.19300
H230        H  0.88495228  0.27812430  0.88219237     0.16400
F231        F  0.97906859  0.29614722  0.84787727    -0.23000
H232        H  0.97924247  0.18882666  0.86022354     0.18200
C233        C  0.71815566  0.49561830  0.75647749    -0.27100
C234        C  0.73633798  0.44950474  0.76416962     0.06500
C235        C  0.72465004  0.39759710  0.77730774     0.26200
C236        C  0.69547567  0.39321611  0.78577996    -0.11600
C237        C  0.67761615  0.44048704  0.78171063    -0.25500
C238        C  0.68908252  0.49137212  0.76506486     0.37000
C239        C  0.76740056  0.45828015  0.76562554     0.06500
F240        F  0.74163954  0.35233274  0.78595627    -0.19300
H241        H  0.68718338  0.35352257  0.79832629     0.16400
F242        F  0.67260656  0.53794169  0.75962520    -0.23000
H243        H  0.72676829  0.53585764  0.74606408     0.18200
C244        C  0.78657070  0.42464124  0.74083142     0.26200
C245        C  0.81592316  0.43151743  0.74647266    -0.11500
C246        C  0.82649913  0.47201279  0.77685615    -0.25600
C247        C  0.80713448  0.50684106  0.80027953     0.37100
C248        C  0.77799305  0.49986316  0.79463387    -0.27200
F249        F  0.77694877  0.38500060  0.71155695    -0.19300
H250        H  0.83035119  0.40421910  0.72805577     0.16400
F251        F  0.81616535  0.54584337  0.83070329    -0.23000
H252        H  0.76358438  0.52581287  0.81445964     0.18200
C253        C  0.46915491  0.52096585  0.59174822    -0.27100
C254        C  0.49877528  0.52605446  0.58910130     0.06500
C255        C  0.51160937  0.53112684  0.54430038     0.26200
C256        C  0.49533352  0.52594471  0.50312458    -0.11600
C257        C  0.46601870  0.51560771  0.50591836    -0.25500
C258        C  0.45285470  0.51589106  0.55068152     0.37000
C259        C  0.51621888  0.51662824  0.63245892     0.06500
F260        F  0.54011529  0.53815823  0.54048127    -0.19300
H261        H  0.50597947  0.52693293  0.46919914     0.16400
F262        F  0.42449584  0.50758880  0.55524484    -0.23000
H263        H  0.45880091  0.51684027  0.62582249     0.18200
C264        C  0.51041814  0.54452287  0.67458276     0.26200
C265        C  0.52506112  0.52959907  0.71640847    -0.11500
C266        C  0.54562930  0.48660348  0.71688739    -0.25600
C267        C  0.55162149  0.45937632  0.67446098     0.37100
C268        C  0.53706121  0.47434572  0.63292087    -0.27200
F269        F  0.49056889  0.58595894  0.67530213    -0.19300
H270        H  0.52025311  0.55157801  0.74843299     0.16400
F271        F  0.57092436  0.41694525  0.67319169    -0.23000
H272        H  0.54137533  0.45125596  0.60127105     0.18200
C273        C  0.01303460  0.49359426  0.66220289    -0.27100
C274        C  0.00090136  0.51585770  0.62010541     0.06500
C275        C  0.97338944  0.53937347  0.62190154     0.26200
C276        C  0.95775170  0.53680107  0.66398522    -0.11600
C277        C  0.96932153  0.51163624  0.70537176    -0.25500
C278        C  0.99760419  0.49194479  0.70448815     0.37000
C279        C  0.01597625  0.50935626  0.57416621     0.06500
F280        F  0.96136186  0.56386155  0.58274218    -0.19300
H281        H  0.93622127  0.55321778  0.66382349     0.16400
F282        F  0.00983639  0.46784129  0.74363216    -0.23000
H283        H  0.03402784  0.47470224  0.66195861     0.18200
C284        C  0.04533861  0.51903329  0.57011734     0.26200
C285        C  0.05986918  0.50530663  0.52882894    -0.11500
C286        C  0.04548720  0.48234589  0.49036024    -0.25600
C287        C  0.01587139  0.47540167  0.49338641     0.37100
C288        C  0.00140223  0.48840602  0.53496873    -0.27200
F289        F  0.06011476  0.54125948  0.60624344    -0.19300
H290        H  0.08258894  0.51186143  0.52730550     0.16400
F291        F  0.00101797  0.45356310  0.45716665    -0.23000
H292        H  0.97890867  0.47970267  0.53717964     0.18200
C293        C  0.22464399  0.40804521  0.46042973    -0.27100
C294        C  0.24270284  0.38490565  0.42646455     0.06500
C295        C  0.23045145  0.35873173  0.38738008     0.26200
C296        C  0.20095949  0.35889061  0.38126767    -0.11600
C297        C  0.18308028  0.38568225  0.41346799    -0.25500
C298        C  0.19517757  0.40904189  0.45387629     0.37000
C299        C  0.27401757  0.39245916  0.42969740     0.06500
F300        F  0.24692455  0.33631274  0.35328247    -0.19300
H301        H  0.19223976  0.34053467  0.34984098     0.16400
F302        F  0.17869165  0.43456248  0.48630715    -0.23000
H303        H  0.23342780  0.42702744  0.49150822     0.18200
C304        C  0.28540784  0.44502977  0.43968616     0.26200
C305        C  0.31468665  0.45371316  0.43726196    -0.11500
C306        C  0.33323900  0.41067429  0.42409676    -0.25600
C307        C  0.32205981  0.35740723  0.41624903     0.37100
C308        C  0.29278221  0.34844873  0.41946067    -0.27200
F309        F  0.26818670  0.48921589  0.44872665    -0.19300
H310        H  0.32266514  0.49514476  0.44331106     0.16400
F311        F  0.33923850  0.31429626  0.40412767    -0.23000
H312        H  0.28470232  0.30726391  0.41276992     0.18200
C313        C  0.46981261  0.59575417  0.10650348    -0.27100
C314        C  0.49225318  0.63144985  0.11795029     0.06500
C315        C  0.48854137  0.66768859  0.15583393     0.26200
C316        C  0.46331726  0.66715091  0.18219892    -0.11600
C317        C  0.44094523  0.63128113  0.17105343    -0.25500
C318        C  0.44434025  0.59585247  0.13246612     0.37000
C319        C  0.51961672  0.63011010  0.09108433     0.06500
F320        F  0.50971638  0.70239806  0.16838419    -0.19300
H321        H  0.46126439  0.69502474  0.21155731     0.16400
F322        F  0.42355446  0.55972141  0.12103788    -0.23000
H323        H  0.47207689  0.56758185  0.07740105     0.18200
C324        C  0.53541731  0.58017332  0.08735028     0.26200
C325        C  0.56126139  0.57943341  0.06249635    -0.11500
C326        C  0.57176785  0.62826979  0.04059003    -0.25600
C327        C  0.55594347  0.67806428  0.04390627     0.37100
C328        C  0.53030985  0.67904673  0.06932745    -0.27200
F329        F  0.52603829  0.53221825  0.10832058    -0.19300
H330        H  0.57287962  0.54045079  0.05962974     0.16400
F331        F  0.56517187  0.72565952  0.02214193    -0.23000
H332        H  0.51850549  0.71791880  0.07135682     0.18200
C333        C  0.97008755  0.64895380  0.10687409    -0.27100
C334        C  0.99434869  0.62452900  0.08678491     0.06500
C335        C  0.99229084  0.60445770  0.04069399     0.26200
C336        C  0.96663727  0.60913002  0.01526578    -0.11600
C337        C  0.94229884  0.63461138  0.03467448    -0.25500
C338        C  0.94444577  0.65441740  0.08122588     0.37000
C339        C  0.02143884  0.61872972  0.11442665     0.06500
F340        F  0.01491890  0.57872130  0.02071100    -0.19300
H341        H  0.96584893  0.59152973  0.98046883     0.16400
F342        F  0.92215199  0.68047130  0.10179825    -0.23000
H343        H  0.97114321  0.66463136  0.14241670     0.18200
C344        C  0.04669284  0.64412377  0.09865346     0.26200
C345        C  0.07186929  0.63873029  0.12545625    -0.11500
C346        C  0.07257656  0.60747631  0.16839788    -0.25600
C347        C  0.04739732  0.58062808  0.18322177     0.37100
C348        C  0.02217371  0.58693608  0.15685683    -0.27200
F349        F  0.04681764  0.67559672  0.05800309    -0.19300
H350        H  0.09065767  0.66026941  0.11308377     0.16400
F351        F  0.04715875  0.54667838  0.22242466    -0.23000
H352        H  0.00317269  0.56607819  0.16923935     0.18200
C353        C  0.28343935  0.62636893  0.24104855    -0.27100
C354        C  0.27247393  0.62545830  0.19501126     0.06500
C355        C  0.29158269  0.62897846  0.15676710     0.26200
C356        C  0.32125940  0.63115884  0.16490182    -0.11600
C357        C  0.33238280  0.63059308  0.21144360    -0.25500
C358        C  0.31267282  0.62946255  0.24928444     0.37000
C359        C  0.24124548  0.61698692  0.18890565     0.06500
F360        F  0.28161762  0.62889859  0.11166818    -0.19300
H361        H  0.33525401  0.63282577  0.13470238     0.16400
F362        F  0.32177648  0.63014626  0.29492751    -0.23000
H363        H  0.26917575  0.62395352  0.27104906     0.18200
C364        C  0.22947837  0.56510485  0.20123488     0.26200
C365        C  0.20001001  0.55921156  0.20620879    -0.11500
C366        C  0.18118642  0.60547049  0.20077435    -0.25600
C367        C  0.19297684  0.65586717  0.18270034     0.37100
C368        C  0.22266122  0.66170018  0.17766276    -0.27200
F369        F  0.24672730  0.52036881  0.21062290    -0.19300
H370        H  0.19251763  0.51798412  0.21533103     0.16400
F371        F  0.17596162  0.70076699  0.17284623    -0.23000
H372        H  0.23120117  0.70200089  0.16738198     0.18200
C373        C  0.46412473  0.69742809  0.57723977    -0.27100
C374        C  0.49288671  0.71125943  0.58254787     0.06500
C375        C  0.50763279  0.73309222  0.54302604     0.26200
C376        C  0.49339522  0.74438155  0.50029004    -0.11600
C377        C  0.46414776  0.73461101  0.49597979    -0.25500
C378        C  0.44979632  0.70904124  0.53446550     0.37000
C379        C  0.50663775  0.70971119  0.63007957     0.06500
F380        F  0.53532350  0.74776330  0.54666642    -0.19300
H381        H  0.50502315  0.76379494  0.47133349     0.16400
F382        F  0.42170456  0.69719359  0.53152581    -0.23000
H383        H  0.45246567  0.67957684  0.60686823     0.18200
C384        C  0.49384559  0.73709892  0.66812649     0.26200
C385        C  0.50923641  0.74600017  0.70965136    -0.11500
C386        C  0.53771545  0.72841265  0.71391657    -0.25600
C387        C  0.54970553  0.69690566  0.67748197     0.37100
C388        C  0.53420368  0.68750751  0.63612750    -0.27200
F389        F  0.46734138  0.75958665  0.66374369    -0.19300
H390        H  0.49941273  0.77001489  0.73720936     0.16400
F391        F  0.57679514  0.67714556  0.68087133    -0.23000
H392        H  0.54422897  0.66503790  0.60781944     0.18200
C393        C  0.44633296  0.07522015  0.39824863    -0.27100
C394        C  0.45314715  0.10177876  0.35491572     0.06500
C395        C  0.45673449  0.06851096  0.31487740     0.26200
C396        C  0.45249111  0.01044945  0.31812467    -0.11600
C397        C  0.44462927  0.98436088  0.36128465    -0.25500
C398        C  0.44209390  0.01759432  0.40154003     0.37000
C399        C  0.45488937  0.16415763  0.35227739     0.06500
F400        F  0.46443071  0.09198388  0.27265460    -0.19300
H401        H  0.45476466  0.98611233  0.28662754     0.16400
F402        F  0.43493302  0.99476052  0.44429213    -0.23000
H403        H  0.44332474  0.09950209  0.42962487     0.18200
C404        C  0.43958789  0.19571716  0.31775831     0.26200
C405        C  0.43803831  0.25407968  0.31982461    -0.11500
C406        C  0.45107718  0.28243717  0.35686301    -0.25600
C407        C  0.46736015  0.25116097  0.39032307     0.37100
C408        C  0.46932181  0.19285625  0.38777493    -0.27200
F409        F  0.42412528  0.17009283  0.28423871    -0.19300
H410        H  0.42498836  0.27678547  0.29403304     0.16400
F411        F  0.48055791  0.27655894  0.42656798    -0.23000
H412        H  0.48136866  0.16980458  0.41470333     0.18200
C413        C  0.99829439  0.72511453  0.53269301    -0.27100
C414        C  0.00999341  0.74041417  0.57622111     0.06500
C415        C  0.03907350  0.75265083  0.57874789     0.26200
C416        C  0.05581953  0.75176725  0.53811846    -0.11600
C417        C  0.04391739  0.73924987  0.49399754    -0.25500
C418        C  0.01506568  0.72448628  0.49182197     0.37000
C419        C  0.99162541  0.74810902  0.61808772     0.06500
F420        F  0.05090918  0.76915421  0.61988183    -0.19300
H421        H  0.07789262  0.76367091  0.54091177     0.16400
F422        F  0.00283457  0.71117699  0.45011684    -0.23000
H423        H  0.97596175  0.71505187  0.53017826     0.18200
C424        C  0.96830827  0.78516320  0.61557693     0.26200
C425        C  0.95292522  0.79713588  0.65637032    -0.11500
C426        C  0.96047857  0.77256875  0.70052374    -0.25600
C427        C  0.98326894  0.73402543  0.70263871     0.37100
C428        C  0.99866296  0.72206368  0.66175025    -0.27200
F429        F  0.96128264  0.81196602  0.57414422    -0.19300
H430        H  0.93547387  0.82686337  0.65352168     0.16400
F431        F  0.99090954  0.70826575  0.74416579    -0.23000
H432        H  0.01643382  0.69303389  0.66426727     0.18200
C433        C  0.06028685  0.15450479  0.37588446    -0.27100
C434        C  0.06266390  0.13186067  0.33067521     0.06500
C435        C  0.06636848  0.16883980  0.29148488     0.26200
C436        C  0.06915660  0.22644446  0.29807430    -0.11600
C437        C  0.06786607  0.24846581  0.34365356    -0.25500
C438        C  0.06254632  0.21181792  0.38235047     0.37000
C439        C  0.06214301  0.06979259  0.32606991     0.06500
F440        F  0.06711943  0.14961765  0.24678991    -0.19300
H441        H  0.07298824  0.25363647  0.26758537     0.16400
F442        F  0.06018108  0.23100199  0.42693487    -0.23000
H443        H  0.05749865  0.12754371  0.40684993     0.18200
C444        C  0.08214892  0.04149592  0.29812437     0.26200
C445        C  0.08386958  0.98307823  0.29981374    -0.11500
C446        C  0.06645560  0.95149323  0.33042689    -0.25600
C447        C  0.04567406  0.97948555  0.35686102     0.37100
C448        C  0.04337571  0.03774208  0.35411788    -0.27200
F449        F  0.10175658  0.06993901  0.27226968    -0.19300
H450        H  0.10031571  0.96279128  0.27957396     0.16400
F451        F  0.02839159  0.95096201  0.38711124    -0.23000
H452        H  0.02751820  0.05801940  0.37558822     0.18200
C453        C  0.22745262  0.76570536  0.42893299    -0.27100
C454        C  0.23891306  0.81947178  0.42893686     0.06500
C455        C  0.22053957  0.86604579  0.42830380     0.26200
C456        C  0.19120030  0.85876042  0.42479195    -0.13200
C457        C  0.17982480  0.80496497  0.42198914    -0.25500
C458        C  0.19818729  0.75831424  0.42583777     0.37000
C459        C  0.26996872  0.82615820  0.42522473     0.06500
F460        F  0.23102276  0.91851791  0.42980395    -0.19300
H461        H  0.17749302  0.89530063  0.42235064     0.16400
F462        F  0.18815855  0.70554976  0.42358492    -0.23000
H463        H  0.24127851  0.72929851  0.42894255     0.18200
C464        C  0.28847264  0.79565419  0.45547387     0.26200
C465        C  0.31773570  0.79709562  0.44796079    -0.11500
C466        C  0.32902586  0.82850256  0.40991272    -0.25600
C467        C  0.31051129  0.86051065  0.38050008     0.37100
C468        C  0.28124637  0.85925679  0.38825322    -0.27200
F469        F  0.27819040  0.76360802  0.49174193    -0.19300
H470        H  0.33149024  0.77213400  0.47112167     0.16400
F471        F  0.32046349  0.89158864  0.34335227    -0.23000
H472        H  0.26727405  0.88236378  0.36410254     0.18200
loop_ 
_geom_bond_atom_site_label_1 
_geom_bond_atom_site_label_2 
_geom_bond_distance 
_geom_bond_site_symmetry_2 
_ccdc_geom_bond_type 
O1            C4   1.262       .  A
O1           Cd6   2.472       .  S
C2           O11   1.261       .  A
C2            O7   1.268       .  A
C2           C34   1.484       .  S
O3            C9   1.264       .  A
O3           Cd6   2.432       .  S
C4           O12   1.265       .  A
C4          C446   1.486       .  S
C5           O10   1.266       .  A
C5            O8   1.270       .  A
C5          C417   1.481       .  S
Cd6          O13   2.457       .  S
Cd6          O12   2.498       .  S
Cd6          O11   2.440       .  S
Cd6           O7   2.535       .  S
Cd6          O10   2.425       .  S
Cd6           O8   2.476       .  S
C9           O13   1.265       .  A
C9          C457   1.474       .  S
O14          C17   1.260       .  A
O14         Cd19   2.434       .  S
C15          O24   1.261       .  A
C15          O20   1.270       .  A
C15         C397   1.494       .  S
O16          C22   1.267       .  A
O16         Cd19   2.445       .  S
C17          O25   1.267       .  A
C17          C41   1.486       .  S
C18          O23   1.265       .  A
C18          O21   1.269       .  A
C18         C377   1.485       .  S
Cd19         O26   2.436       .  S
Cd19         O25   2.556       .  S
Cd19         O24   2.442       .  S
Cd19         O20   2.554       .  S
Cd19         O23   2.463       .  S
Cd19         O21   2.477       .  S
C22          O26   1.265       .  A
C22         C466   1.475       .  S
C27          C28   1.543       .  S
C27          C33   1.538       .  S
C27          C31   1.548       .  S
C27         C366   1.558       .  S
C28          H35   1.081       .  S
C28          C29   1.364       .  D
C29          C54   1.485       .  S
C29          C30   1.538       .  S
C30          C34   1.540       .  S
C30          C32   1.548       .  S
C30          H36   1.108       .  S
C31          H37   1.085       .  S
C31          C32   1.382       .  D
C32         C346   1.504       .  S
C33          H38   1.086       .  S
C33          C34   1.367       .  D
C39          C40   1.534       .  S
C39          C45   1.534       .  S
C39          C43   1.552       .  S
C39         C357   1.547       .  S
C40          H47   1.087       .  S
C40          C41   1.365       .  D
C41          C42   1.542       .  S
C42          C46   1.545       .  S
C42          C44   1.550       .  S
C42          H48   1.110       .  S
C43          H49   1.083       .  S
C43          C44   1.382       .  D
C44         C317   1.497       .  S
C45          H50   1.087       .  S
C45          C46   1.364       .  D
C46          C65   1.488       .  S
O51          C54   1.259       .  A
O51         Cd56   2.419       .  S
C52          O61   1.262       .  A
C52          O57   1.268       .  A
C52         C437   1.488       .  S
O53          C59   1.267       .  A
O53         Cd56   2.461       .  S
C54          O62   1.267       .  A
C55          O60   1.266       .  A
C55          O58   1.269       .  A
C55         C286   1.486       .  S
Cd56         O63   2.454       .  S
Cd56         O62   2.558       .  S
Cd56         O61   2.438       .  S
Cd56         O57   2.527       .  S
Cd56         O60   2.453       .  S
Cd56         O58   2.491       .  S
C59          O63   1.265       .  A
C59         C297   1.480       .  S
O64          C67   1.267       .  A
O64         Cd69   2.506       .  S
C65          O74   1.261       .  A
C65          O70   1.267       .  A
O66          C72   1.267       .  A
O66         Cd69   2.473       .  S
C67          O75   1.264       .  A
C67         C406   1.491       .  S
C68          O73   1.265       .  A
C68          O71   1.269       .  A
C68         C257   1.485       .  S
Cd69         O76   2.456       .  S
Cd69         O75   2.490       .  S
Cd69         O74   2.434       .  S
Cd69         O70   2.566       .  S
Cd69         O73   2.452       .  S
Cd69         O71   2.489       .  S
C72          O76   1.264       .  A
C72         C306   1.481       .  S
O77          C80   1.262       .  A
O77         Cd82   2.482       .  S
C78          O87   1.265       .  A
C78          O83   1.263       .  A
C78         C143   1.484       .  S
O79          C85   1.266       .  A
O79         Cd82   2.470       .  S
C80          O88   1.266       .  A
C80         C226   1.493       .  S
C81          O86   1.263       .  A
C81          O84   1.267       .  A
C81         C246   1.479       .  S
Cd82         O89   2.487       .  S
Cd82         O88   2.526       .  S
Cd82         O87   2.542       .  S
Cd82         O83   2.449       .  S
Cd82         O86   2.428       .  S
Cd82         O84   2.484       .  S
C85          O89   1.267       .  A
C85         C277   1.486       .  S
O90          C93   1.265       .  A
O90         Cd95   2.501       .  S
C91         O100   1.267       .  A
C91          O96   1.263       .  A
C91         C136   1.487       .  S
O92          C98   1.263       .  A
O92         Cd95   2.441       .  S
C93         O101   1.264       .  A
C93         C197   1.492       .  S
C94          O99   1.264       .  A
C94          O97   1.270       .  A
C94         C266   1.481       .  S
Cd95        O102   2.474       .  S
Cd95        O101   2.500       .  S
Cd95        O100   2.547       .  S
Cd95         O96   2.440       .  S
Cd95         O99   2.418       .  S
Cd95         O97   2.489       .  S
C98         O102   1.266       .  A
C98         C237   1.478       .  S
O103        C106   1.267       .  A
O103       Cd108   2.562       .  S
C104        O113   1.264       .  A
C104        O109   1.269       .  A
C104        C206   1.493       .  S
O105        C111   1.267       .  A
O105       Cd108   2.473       .  S
C106        O114   1.260       .  A
C106        C131   1.486       .  S
C107        O112   1.265       .  A
C107        O110   1.268       .  A
C107        C386   1.484       .  S
Cd108       O115   2.439       .  S
Cd108       O114   2.434       .  S
Cd108       O113   2.470       .  S
Cd108       O109   2.519       .  S
Cd108       O112   2.464       .  S
Cd108       O110   2.488       .  S
C111        O115   1.265       .  A
C111        C177   1.479       .  S
O116        C119   1.263       .  A
O116       Cd121   2.497       .  S
C117        O126   1.262       .  A
C117        O122   1.269       .  A
C117        C148   1.493       .  S
O118        C124   1.265       .  A
O118       Cd121   2.449       .  S
C119        O127   1.264       .  A
C119        C217   1.494       .  S
C120        O125   1.264       .  A
C120        O123   1.270       .  A
C120        C426   1.485       .  S
Cd121       O128   2.454       .  S
Cd121       O127   2.514       .  S
Cd121       O126   2.454       .  S
Cd121       O122   2.559       .  S
Cd121       O125   2.449       .  S
Cd121       O123   2.497       .  S
C124        O128   1.265       .  A
C124        C186   1.475       .  S
C129        C130   1.533       .  S
C129        C135   1.536       .  S
C129        C133   1.556   1_556  S
C129        C157   1.552       .  S
C130        H137   1.087       .  S
C130        C131   1.364       .  D
C131        C132   1.542       .  S
C132        C136   1.546       .  S
C132        C134   1.543   1_556  S
C132        H138   1.111       .  S
C133        H139   1.084       .  S
C133        C134   1.382       .  D
C134        C326   1.491       .  S
C135        H140   1.087       .  S
C135        C136   1.366       .  D
C141        C142   1.544       .  S
C141        C147   1.542       .  S
C141        C145   1.548   1_556  S
C141        C166   1.565   1_556  S
C142        H149   1.084       .  S
C142        C143   1.364       .  D
C143        C144   1.539       .  S
C144        C148   1.543       .  S
C144        C146   1.554   1_556  S
C144        H150   1.109       .  S
C145        H151   1.084       .  S
C145        C146   1.384       .  D
C146        C337   1.512       .  S
C147        H152   1.085       .  S
C147        C148   1.368       .  D
C153        C154   1.400   1_556  A
C153        C158   1.401       .  A
C153        H163   1.084       .  S
C154        C159   1.504       .  S
C154        C155   1.412       .  A
C155        C156   1.419       .  A
C155        F160   1.356       .  S
C156        C157   1.414   1_554  A
C156        H161   1.080       .  S
C157        C158   1.419       .  A
C158        F162   1.358       .  S
C159        C164   1.405       .  A
C159        C168   1.406       .  A
C164        C165   1.407       .  A
C164        F169   1.357       .  S
C165        C166   1.416       .  A
C165        H170   1.080       .  S
C166        C167   1.421       .  A
C167        C168   1.414       .  A
C167        F171   1.357       .  S
C168        H172   1.083       .  S
C173        C174   1.404       .  A
C173        C178   1.399       .  A
C173        H183   1.083       .  S
C174        C179   1.479       .  S
C174        C175   1.406       .  A
C175        C176   1.395       .  A
C175        F180   1.358       .  S
C176        C177   1.406       .  A
C176        H181   1.083       .  S
C177        C178   1.408       .  A
C178        F182   1.357       .  S
C179        C184   1.406       .  A
C179        C188   1.404       .  A
C184        C185   1.395       .  A
C184        F189   1.358       .  S
C185        C186   1.404       .  A
C185        H190   1.083       .  S
C186        C187   1.407       .  A
C187        C188   1.397       .  A
C187        F191   1.358       .  S
C188        H192   1.083       .  S
C193        C194   1.406       .  A
C193        C198   1.404       .  A
C193        H203   1.083       .  S
C194        C199   1.494       .  S
C194        C195   1.408       .  A
C195        C196   1.403       .  A
C195        F200   1.357       .  S
C196        C197   1.408       .  A
C196        H201   1.083       .  S
C197        C198   1.410       .  A
C198        F202   1.357       .  S
C199        C204   1.408       .  A
C199        C208   1.407       .  A
C204        C205   1.401       .  A
C204        F209   1.358       .  S
C205        C206   1.408   1_545  A
C205        H210   1.083   1_545  S
C206        C207   1.410       .  A
C207        C208   1.406   1_565  A
C207        F211   1.357       .  S
C208        H212   1.083       .  S
C213        C214   1.409       .  A
C213        C218   1.403       .  A
C213        H223   1.082       .  S
C214        C219   1.506       .  S
C214        C215   1.413       .  A
C215        C216   1.404       .  A
C215        F220   1.357       .  S
C216        C217   1.406   1_545  A
C216        H221   1.083       .  S
C217        C218   1.409   1_565  A
C218        F222   1.357   1_545  S
C219        C224   1.413       .  A
C219        C228   1.410       .  A
C224        C225   1.401       .  A
C224        F229   1.357       .  S
C225        C226   1.406       .  A
C225        H230   1.083       .  S
C226        C227   1.409       .  A
C227        C228   1.406       .  A
C227        F231   1.357       .  S
C228        H232   1.082       .  S
C233        C234   1.403       .  A
C233        C238   1.394       .  A
C233        H243   1.084       .  S
C234        C239   1.479       .  S
C234        C235   1.407       .  A
C235        C236   1.399       .  A
C235        F240   1.357       .  S
C236        C237   1.406       .  A
C236        H241   1.083       .  S
C237        C238   1.409       .  A
C238        F242   1.357       .  S
C239        C244   1.405       .  A
C239        C248   1.402       .  A
C244        C245   1.402       .  A
C244        F249   1.357       .  S
C245        C246   1.407       .  A
C245        H250   1.083       .  S
C246        C247   1.409       .  A
C247        C248   1.392       .  A
C247        F251   1.358       .  S
C248        H252   1.083       .  S
C253        C254   1.402       .  A
C253        C258   1.398       .  A
C253        H263   1.083       .  S
C254        C259   1.483       .  S
C254        C255   1.407       .  A
C255        C256   1.400       .  A
C255        F260   1.358       .  S
C256        C257   1.406       .  A
C256        H261   1.083       .  S
C257        C258   1.411       .  A
C258        F262   1.357       .  S
C259        C264   1.407       .  A
C259        C268   1.403       .  A
C264        C265   1.402       .  A
C264        F269   1.357       .  S
C265        C266   1.406       .  A
C265        H270   1.083       .  S
C266        C267   1.409       .  A
C267        C268   1.394       .  A
C267        F271   1.358       .  S
C268        H272   1.083       .  S
C273        C274   1.407       .  A
C273        C278   1.400   1_455  A
C273        H283   1.082       .  S
C274        C279   1.493       .  S
C274        C275   1.408   1_455  A
C275        C276   1.401       .  A
C275        F280   1.357       .  S
C276        C277   1.406       .  A
C276        H281   1.083       .  S
C277        C278   1.408       .  A
C278        F282   1.357   1_655  S
C279        C284   1.408       .  A
C279        C288   1.408       .  A
C284        C285   1.400       .  A
C284        F289   1.357       .  S
C285        C286   1.407       .  A
C285        H290   1.083       .  S
C286        C287   1.408       .  A
C287        C288   1.401       .  A
C287        F291   1.357       .  S
C288        H292   1.082   1_455  S
C293        C294   1.406       .  A
C293        C298   1.398       .  A
C293        H303   1.083       .  S
C294        C299   1.489       .  S
C294        C295   1.410       .  A
C295        C296   1.398       .  A
C295        F300   1.358       .  S
C296        C297   1.405       .  A
C296        H301   1.083       .  S
C297        C298   1.407       .  A
C298        F302   1.357       .  S
C299        C304   1.410       .  A
C299        C308   1.406       .  A
C304        C305   1.397       .  A
C304        F309   1.357       .  S
C305        C306   1.403       .  A
C305        H310   1.083       .  S
C306        C307   1.409       .  A
C307        C308   1.399       .  A
C307        F311   1.358       .  S
C308        H312   1.083       .  S
C313        C314   1.408       .  A
C313        C318   1.407       .  A
C313        H323   1.083       .  S
C314        C319   1.497       .  S
C314        C315   1.407       .  A
C315        C316   1.403       .  A
C315        F320   1.357       .  S
C316        C317   1.406       .  A
C316        H321   1.083       .  S
C317        C318   1.409       .  A
C318        F322   1.357       .  S
C319        C324   1.409       .  A
C319        C328   1.408       .  A
C324        C325   1.406       .  A
C324        F329   1.357       .  S
C325        C326   1.404       .  A
C325        H330   1.083       .  S
C326        C327   1.406       .  A
C327        C328   1.406       .  A
C327        F331   1.357       .  S
C328        H332   1.083       .  S
C333        C334   1.406       .  A
C333        C338   1.408       .  A
C333        H343   1.083       .  S
C334        C339   1.496   1_655  S
C334        C335   1.404       .  A
C335        C336   1.405       .  A
C335        F340   1.357   1_655  S
C336        C337   1.412       .  A
C336        H341   1.081   1_554  S
C337        C338   1.414       .  A
C338        F342   1.356       .  S
C339        C344   1.409       .  A
C339        C348   1.403       .  A
C344        C345   1.407       .  A
C344        F349   1.357       .  S
C345        C346   1.409       .  A
C345        H350   1.083       .  S
C346        C347   1.413       .  A
C347        C348   1.404       .  A
C347        F351   1.357       .  S
C348        H352   1.083       .  S
C353        C354   1.399       .  A
C353        C358   1.397       .  A
C353        H363   1.084       .  S
C354        C359   1.495       .  S
C354        C355   1.409       .  A
C355        C356   1.416       .  A
C355        F360   1.357       .  S
C356        C357   1.414       .  A
C356        H361   1.080       .  S
C357        C358   1.418       .  A
C358        F362   1.358       .  S
C359        C364   1.402       .  A
C359        C368   1.405       .  A
C364        C365   1.402       .  A
C364        F369   1.358       .  S
C365        C366   1.417       .  A
C365        H370   1.078       .  S
C366        C367   1.418       .  A
C367        C368   1.412       .  A
C367        F371   1.357       .  S
C368        H372   1.083       .  S
C373        C374   1.405       .  A
C373        C378   1.402       .  A
C373        H383   1.083       .  S
C374        C379   1.488       .  S
C374        C375   1.408       .  A
C375        C376   1.398       .  A
C375        F380   1.357       .  S
C376        C377   1.404       .  A
C376        H381   1.083       .  S
C377        C378   1.411       .  A
C378        F382   1.358       .  S
C379        C384   1.409       .  A
C379        C388   1.405       .  A
C384        C385   1.399       .  A
C384        F389   1.357       .  S
C385        C386   1.404       .  A
C385        H390   1.083       .  S
C386        C387   1.410       .  A
C387        C388   1.400       .  A
C387        F391   1.357       .  S
C388        H392   1.083       .  S
C393        C394   1.404       .  A
C393        C398   1.398       .  A
C393        H403   1.083       .  S
C394        C399   1.498       .  S
C394        C395   1.412       .  A
C395        C396   1.409       .  A
C395        F400   1.357       .  S
C396        C397   1.408   1_545  A
C396        H401   1.083   1_545  S
C397        C398   1.411   1_565  A
C398        F402   1.358   1_545  S
C399        C404   1.409       .  A
C399        C408   1.408       .  A
C404        C405   1.403       .  A
C404        F409   1.357       .  S
C405        C406   1.406       .  A
C405        H410   1.083       .  S
C406        C407   1.410       .  A
C407        C408   1.404       .  A
C407        F411   1.358       .  S
C408        H412   1.083       .  S
C413        C414   1.405   1_655  A
C413        C418   1.401   1_655  A
C413        H423   1.083       .  S
C414        C419   1.482   1_455  S
C414        C415   1.404       .  A
C415        C416   1.395       .  A
C415        F420   1.358       .  S
C416        C417   1.406       .  A
C416        H421   1.083       .  S
C417        C418   1.408       .  A
C418        F422   1.357       .  S
C419        C424   1.405       .  A
C419        C428   1.404       .  A
C424        C425   1.398       .  A
C424        F429   1.358       .  S
C425        C426   1.408       .  A
C425        H430   1.083       .  S
C426        C427   1.408       .  A
C427        C428   1.401       .  A
C427        F431   1.357       .  S
C428        H432   1.083   1_655  S
C433        C434   1.406       .  A
C433        C438   1.396       .  A
C433        H443   1.083       .  S
C434        C439   1.498       .  S
C434        C435   1.412       .  A
C435        C436   1.406       .  A
C435        F440   1.357       .  S
C436        C437   1.407       .  A
C436        H441   1.083       .  S
C437        C438   1.408       .  A
C438        F442   1.358       .  S
C439        C444   1.411       .  A
C439        C448   1.408       .  A
C444        C445   1.401   1_545  A
C444        F449   1.356       .  S
C445        C446   1.405       .  A
C445        H450   1.083       .  S
C446        C447   1.408       .  A
C447        C448   1.400   1_565  A
C447        F451   1.358       .  S
C448        H452   1.083       .  S
C453        C454   1.402       .  A
C453        C458   1.393       .  A
C453        H463   1.083       .  S
C454        C459   1.475       .  S
C454        C455   1.405       .  A
C455        C456   1.397       .  A
C455        F460   1.358       .  S
C456        C457   1.405       .  A
C456        H461   1.083       .  S
C457        C458   1.408       .  A
C458        F462   1.358       .  S
C459        C464   1.404       .  A
C459        C468   1.403       .  A
C464        C465   1.394       .  A
C464        F469   1.357       .  S
C465        C466   1.404       .  A
C465        H470   1.083       .  S
C466        C467   1.409       .  A
C467        C468   1.395       .  A
C467        F471   1.358       .  S
C468        H472   1.083       .  S
