geometry optimzed in LAMMPS
_audit_creation_date              2020-11-30 
_audit_creation_method            'lammps2cif' 
_symmetry_space_group_name_H-M    'P1' 
_symmetry_Int_Tables_number       1 
_symmetry_cell_setting            triclinic 
loop_ 
_symmetry_equiv_pos_as_xyz 
  x,y,z 
_cell_length_a                    41.31152231 
_cell_length_b                    40.67643404226608 
_cell_length_c                    36.14183696328212 
_cell_angle_alpha                 89.96579881089394 
_cell_angle_beta                  89.95042584221193 
_cell_angle_gamma                 121.52538210473357 
loop_ 
_atom_site_label 
_atom_site_type_symbol 
_atom_site_fract_x 
_atom_site_fract_y 
_atom_site_fract_z 
_atom_site_charge 
C1          C  0.33600019  0.20491387  0.00532759     0.05900
C2          C  0.36856002  0.20239771  0.33857560    -0.10200
C3          C  0.36502744  0.16620431  0.33849108     0.03400
C4          C  0.32894310  0.13256337  0.33845481    -0.08700
C5          C  0.29634643  0.13499633  0.00520898     0.05900
C6          C  0.29988473  0.17117877  0.00530673    -0.08200
H7          H  0.39649183  0.22845990  0.33862997     0.11500
H8          H  0.32623505  0.10456147  0.33841615     0.09000
H9          H  0.27466114  0.17308339  0.00540814     0.08900
C10         C  0.20067898  0.33189147  0.00649095     0.05900
C11         C  0.19948798  0.36567359  0.00638803    -0.10200
C12         C  0.16450293  0.36341851  0.00628257     0.03400
C13         C  0.13069212  0.32735852  0.00631003    -0.08700
C14         C  0.13182563  0.29353181  0.00641960     0.05900
C15         C  0.16683937  0.29577873  0.00651853    -0.08200
H16         H  0.22568995  0.39361011  0.00633598     0.11500
H17         H  0.10358560  0.32562385  0.00619737     0.09000
H18         H  0.16775317  0.26961533  0.00656299     0.09200
C19         C  0.30444137  0.34093354  0.00624898     0.89300
C20         C  0.32884658  0.36255581  0.03994345    -0.50900
C21         C  0.36351716  0.36602344  0.03973681     0.12200
C22         C  0.37052201  0.34736994  0.00613729     0.23200
C23         C  0.32896687  0.36288922  0.30596913    -0.51700
C24         C  0.36364029  0.36634880  0.30606033     0.12300
C25         C  0.30199128  0.30208723  0.00607922    -0.51200
C26         C  0.33658062  0.30544780  0.00601295     0.12900
H27         H  0.31995253  0.37483546  0.06145582     0.17400
H28         H  0.39878120  0.35020364  0.00609171     0.03100
H29         H  0.32012985  0.37534094  0.28457936     0.17700
H30         H  0.27535768  0.27443685  0.00599252     0.17500
C31         C  0.45985019  0.15759088  0.00551937     0.89300
C32         C  0.46240051  0.13615888  0.30513830    -0.50900
C33         C  0.99377320  0.13313887  0.30542163     0.12200
C34         C  0.01974344  0.15190707  0.00572339     0.23200
C35         C  0.46197072  0.13578400  0.03916688    -0.51700
C36         C  0.49335481  0.13277691  0.03909427     0.12300
C37         C  0.49722931  0.19666293  0.00574197    -0.51200
C38         C  0.02854769  0.19360606  0.00585349     0.12900
H39         H  0.44104260  0.12384278  0.28349532     0.17400
H40         H  0.04529363  0.14942366  0.00581192     0.03100
H41         H  0.44036372  0.12326838  0.06062867     0.17700
H42         H  0.99881357  0.22418820  0.00582081     0.17500
C43         C  0.15965265  0.46176585  0.00569434     0.89300
C44         C  0.13858647  0.46460346  0.03930243    -0.50900
C45         C  0.13623401  0.49681856  0.03906083     0.12200
C46         C  0.15532306  0.02334510  0.00552359     0.23200
C47         C  0.13871524  0.46457195  0.30531318    -0.51700
C48         C  0.13637161  0.49680152  0.30537840     0.12300
C49         C  0.19847614  0.49931389  0.00566813    -0.51200
C50         C  0.19617604  0.03155211  0.00556977     0.12900
H51         H  0.12591348  0.44273827  0.06081286     0.17400
H52         H  0.15337991  0.04958766  0.00545487     0.03100
H53         H  0.12612433  0.44268584  0.28387025     0.17700
H54         H  0.22529829  0.00034350  0.00569797     0.17500
Fe55       Fe  0.45577380  0.50030183  0.17259404     1.65800
Fe56       Fe  0.00524241  0.45393295  0.17254468     1.73200
Fe57       Fe  0.05339530  0.05315671  0.17221090     1.54400
O58         O  0.03559913  0.07598670  0.13149981    -0.78900
O59         O  0.04575351  0.47278613  0.21355489    -0.77200
O60         O  0.47224824  0.04100412  0.13133744    -0.81400
O61         O  0.47272582  0.04183617  0.21304302    -0.76200
O62         O  0.07708416  0.03719294  0.13086684    -0.78000
O63         O  0.46433573  0.42845530  0.21344800    -0.80800
C64         C  0.00421090  0.06871760  0.22548021     1.00000
C65         C  0.50367062  0.06833238  0.11918114     1.07500
O66         O  0.50482732  0.50248237  0.17244928    -1.09700
O67         O  0.46476798  0.42867946  0.13141631    -0.72200
O68         O  0.43226575  0.45848264  0.13211070    -0.75700
O69         O  0.03609402  0.07581797  0.21351430    -0.76300
C70         C  0.43853141  0.43325172  0.11955890     0.98900
O71         O  0.43284763  0.45931229  0.21391765    -0.74300
O72         O  0.04618460  0.47287939  0.13178243    -0.79500
C73         C  0.07175930  0.50531892  0.22543255     1.01500
C74         C  0.07158037  0.00533429  0.11905498     1.07500
O75         O  0.07773490  0.03714212  0.21289088    -0.75100
C76         C  0.43866185  0.43360167  0.22597865     1.05800
C77         C  0.09562938  0.00575280  0.09015438    -0.10500
C78         C  0.11501754  0.50335025  0.06665349    -0.12000
C79         C  0.11527678  0.50336218  0.27768869    -0.10500
C80         C  0.09593369  0.50582894  0.25420843    -0.12000
C81         C  0.00341984  0.09260127  0.25421691    -0.10500
C82         C  0.00030494  0.11184788  0.27765311    -0.12000
C83         C  0.50275826  0.09211077  0.09037859    -0.10500
C84         C  0.49966272  0.11134928  0.06690265    -0.12000
C85         C  0.39203041  0.38856563  0.27844637    -0.10500
C86         C  0.41435897  0.40873277  0.25491244    -0.12000
C87         C  0.41415346  0.40830827  0.09079808    -0.10500
C88         C  0.39184782  0.38812937  0.06733380    -0.12000
C89         C  0.06638999  0.22706072  0.00611243    -0.10500
C90         C  0.09688480  0.25667470  0.00629715    -0.12000
C91         C  0.16326356  0.39809508  0.00604293    -0.10500
C92         C  0.16189721  0.42696863  0.00583631    -0.12000
C93         C  0.23671689  0.33445461  0.00643594    -0.10500
C94         C  0.26723275  0.33728754  0.00633666    -0.12000
C95         C  0.22966937  0.06969610  0.00543756    -0.10500
C96         C  0.25940478  0.10018961  0.00531235    -0.12000
C97         C  0.34001187  0.27196514  0.00576775    -0.10500
C98         C  0.33944091  0.24201959  0.00554696    -0.12000
C99         C  0.39837838  0.16347453  0.00524767    -0.10500
C100        C  0.42611346  0.16083028  0.00538209    -0.12000
C101        C  0.33600012  0.20491393  0.33866094     0.05900
C102        C  0.36855999  0.20239764  0.67190900    -0.10200
C103        C  0.36502748  0.16620419  0.67182425     0.03400
C104        C  0.32894329  0.13256324  0.67178815    -0.08700
C105        C  0.29634631  0.13499641  0.33854246     0.05900
C106        C  0.29988461  0.17117877  0.33863998    -0.08200
H107        H  0.39649149  0.22845969  0.67196289     0.11500
H108        H  0.32623540  0.10456121  0.67174929     0.09000
H109        H  0.27466046  0.17308314  0.33874187     0.08900
C110        C  0.20067891  0.33189141  0.33982424     0.05900
C111        C  0.19948779  0.36567348  0.33972149    -0.10200
C112        C  0.16450257  0.36341831  0.33961585     0.03400
C113        C  0.13069184  0.32735842  0.33964342    -0.08700
C114        C  0.13182543  0.29353181  0.33975291     0.05900
C115        C  0.16683928  0.29577875  0.33985193    -0.08200
H116        H  0.22568945  0.39360990  0.33966952     0.11500
H117        H  0.10358481  0.32562371  0.33953014     0.09000
H118        H  0.16775299  0.26961531  0.33989575     0.09200
C119        C  0.30444147  0.34093363  0.33958251     0.89300
C120        C  0.32884656  0.36255580  0.37327679    -0.50900
C121        C  0.36351713  0.36602341  0.37307025     0.12200
C122        C  0.37052220  0.34736999  0.33947074     0.23200
C123        C  0.32896699  0.36288935  0.63930232    -0.51700
C124        C  0.36364028  0.36634883  0.63939349     0.12300
C125        C  0.30199148  0.30208744  0.33941265    -0.51200
C126        C  0.33658083  0.30544788  0.33934636     0.12900
H127        H  0.31995242  0.37483591  0.39478916     0.17400
H128        H  0.39878163  0.35020372  0.33942535     0.03100
H129        H  0.32012985  0.37534098  0.61791210     0.17700
H130        H  0.27535787  0.27443709  0.33932566     0.17500
C131        C  0.45985012  0.15759090  0.33885255     0.89300
C132        C  0.46240072  0.13615906  0.63847188    -0.50900
C133        C  0.99377349  0.13313899  0.63875524     0.12200
C134        C  0.01974330  0.15190704  0.33905661     0.23200
C135        C  0.46197078  0.13578411  0.37250005    -0.51700
C136        C  0.49335485  0.13277698  0.37242744     0.12300
C137        C  0.49722924  0.19666295  0.33907518    -0.51200
C138        C  0.02854764  0.19360602  0.33918671     0.12900
H139        H  0.44104280  0.12384300  0.61682943     0.17400
H140        H  0.04529327  0.14942363  0.33914517     0.03100
H141        H  0.44036405  0.12326863  0.39396174     0.17700
H142        H  0.99881370  0.22418804  0.33915398     0.17500
C143        C  0.15965242  0.46176577  0.33902767     0.89300
C144        C  0.13858636  0.46460332  0.37263583    -0.50900
C145        C  0.13623403  0.49681845  0.37239421     0.12200
C146        C  0.15532298  0.02334514  0.33885692     0.23200
C147        C  0.13871537  0.46457180  0.63864665    -0.51700
C148        C  0.13637176  0.49680140  0.63871166     0.12300
C149        C  0.19847593  0.49931387  0.33900154    -0.51200
C150        C  0.19617582  0.03155220  0.33890315     0.12900
H151        H  0.12591331  0.44273815  0.39414626     0.17400
H152        H  0.15337993  0.04958781  0.33878840     0.03100
H153        H  0.12612460  0.44268547  0.61720396     0.17700
H154        H  0.22529760  0.00034359  0.33903114     0.17500
Fe155      Fe  0.45577377  0.50030186  0.50592734     1.65800
Fe156      Fe  0.00524246  0.45393299  0.50587797     1.73200
Fe157      Fe  0.05339534  0.05315672  0.50554422     1.54400
O158        O  0.03559918  0.07598662  0.46483319    -0.78900
O159        O  0.04575360  0.47278617  0.54688809    -0.77200
O160        O  0.47224818  0.04100406  0.46467067    -0.81400
O161        O  0.47272583  0.04183615  0.54637624    -0.76200
O162        O  0.07708420  0.03719295  0.46420026    -0.78000
O163        O  0.46433585  0.42845552  0.54678126    -0.80800
C164        C  0.00421096  0.06871755  0.55881362     1.00000
C165        C  0.50367057  0.06833238  0.45251451     1.07500
O166        O  0.50482725  0.50248250  0.50578257    -1.09700
O167        O  0.46476807  0.42867957  0.46474960    -0.72200
O168        O  0.43226585  0.45848276  0.46544393    -0.75700
O169        O  0.03609411  0.07581797  0.54684768    -0.76300
C170        C  0.43853147  0.43325175  0.45289220     0.98900
O171        O  0.43284758  0.45931219  0.54725090    -0.74300
O172        O  0.04618463  0.47287943  0.46511578    -0.79500
C173        C  0.07175948  0.50531893  0.55876576     1.01500
C174        C  0.07158041  0.00533439  0.45238826     1.07500
O175        O  0.07773504  0.03714228  0.54622432    -0.75100
C176        C  0.43866187  0.43360168  0.55931192     1.05800
C177        C  0.09562955  0.00575297  0.42348760    -0.10500
C178        C  0.11501759  0.50335024  0.39998669    -0.12000
C179        C  0.11527679  0.50336213  0.61102207    -0.10500
C180        C  0.09593378  0.50582896  0.58754176    -0.12000
C181        C  0.00341984  0.09260131  0.58755031    -0.10500
C182        C  0.00030500  0.11184794  0.61098659    -0.12000
C183        C  0.50275821  0.09211066  0.42371187    -0.10500
C184        C  0.49966276  0.11134927  0.40023592    -0.12000
C185        C  0.39203047  0.38856570  0.61177968    -0.10500
C186        C  0.41435910  0.40873286  0.58824583    -0.12000
C187        C  0.41415355  0.40830816  0.42413135    -0.10500
C188        C  0.39184772  0.38812934  0.40066715    -0.12000
C189        C  0.06639002  0.22706068  0.33944575    -0.10500
C190        C  0.09688483  0.25667465  0.33963044    -0.12000
C191        C  0.16326351  0.39809504  0.33937623    -0.10500
C192        C  0.16189719  0.42696863  0.33916957    -0.12000
C193        C  0.23671695  0.33445466  0.33976919    -0.10500
C194        C  0.26723283  0.33728767  0.33966986    -0.12000
C195        C  0.22966935  0.06969605  0.33877091    -0.10500
C196        C  0.25940474  0.10018959  0.33864559    -0.12000
C197        C  0.34001180  0.27196505  0.33910094    -0.10500
C198        C  0.33944095  0.24201958  0.33888017    -0.12000
C199        C  0.39837831  0.16347450  0.33858093    -0.10500
C200        C  0.42611336  0.16083021  0.33871551    -0.12000
C201        C  0.33600018  0.20491384  0.67199424     0.05900
C202        C  0.36856000  0.20239764  0.00524235    -0.10200
C203        C  0.36502743  0.16620420  0.00515760     0.03400
C204        C  0.32894313  0.13256328  0.00512151    -0.08700
C205        C  0.29634652  0.13499621  0.67187563     0.05900
C206        C  0.29988473  0.17117865  0.67197338    -0.08200
H207        H  0.39649154  0.22845968  0.00529624     0.11500
H208        H  0.32623505  0.10456133  0.00508264     0.09000
H209        H  0.27466098  0.17308298  0.67207479     0.08900
C210        C  0.20067900  0.33189150  0.67315761     0.05900
C211        C  0.19948799  0.36567358  0.67305468    -0.10200
C212        C  0.16450284  0.36341849  0.67294922     0.03400
C213        C  0.13069206  0.32735863  0.67297668    -0.08700
C214        C  0.13182552  0.29353194  0.67308625     0.05900
C215        C  0.16683937  0.29577889  0.67318519    -0.08200
H216        H  0.22568985  0.39361002  0.67300263     0.11500
H217        H  0.10358515  0.32562404  0.67286401     0.09000
H218        H  0.16775314  0.26961540  0.67322962     0.09200
C219        C  0.30444159  0.34093386  0.67291576     0.89300
C220        C  0.32884662  0.36255599  0.70661015    -0.50900
C221        C  0.36351716  0.36602356  0.70640363     0.12200
C222        C  0.37052225  0.34737011  0.67280404     0.23200
C223        C  0.32896671  0.36288922  0.97263561    -0.51700
C224        C  0.36364003  0.36634880  0.97272679     0.12300
C225        C  0.30199159  0.30208757  0.67274600    -0.51200
C226        C  0.33658095  0.30544803  0.67267972     0.12900
H227        H  0.31995252  0.37483616  0.72812259     0.17400
H228        H  0.39878162  0.35020384  0.67275856     0.03100
H229        H  0.32012946  0.37534107  0.95124551     0.17700
H230        H  0.27535829  0.27443753  0.67265919     0.17500
C231        C  0.45985029  0.15759094  0.67218623     0.89300
C232        C  0.46240061  0.13615899  0.97180507    -0.50900
C233        C  0.99377335  0.13313893  0.97208838     0.12200
C234        C  0.01974343  0.15190712  0.67239014     0.23200
C235        C  0.46197078  0.13578402  0.70583371    -0.51700
C236        C  0.49335478  0.13277680  0.70576096     0.12300
C237        C  0.49722939  0.19666299  0.67240862    -0.51200
C238        C  0.02854770  0.19360610  0.67252007     0.12900
H239        H  0.44104259  0.12384292  0.95016217     0.17400
H240        H  0.04529369  0.14942376  0.67247858     0.03100
H241        H  0.44036351  0.12326789  0.72729548     0.17700
H242        H  0.99881363  0.22418828  0.67248733     0.17500
C243        C  0.15965278  0.46176590  0.67236113     0.89300
C244        C  0.13858653  0.46460345  0.70596921    -0.50900
C245        C  0.13623403  0.49681843  0.70572754     0.12200
C246        C  0.15532317  0.02334514  0.67219021     0.23200
C247        C  0.13871526  0.46457177  0.97197995    -0.51700
C248        C  0.13637167  0.49680142  0.97204502     0.12300
C249        C  0.19847629  0.49931394  0.67233485    -0.51200
C250        C  0.19617610  0.03155208  0.67223648     0.12900
H251        H  0.12591343  0.44273825  0.72747959     0.17400
H252        H  0.15338041  0.04958782  0.67212147     0.03100
H253        H  0.12612446  0.44268536  0.95053693     0.17700
H254        H  0.22529835  0.00034356  0.67236468     0.17500
Fe255      Fe  0.45577380  0.50030185  0.83926074     1.65800
Fe256      Fe  0.00524243  0.45393297  0.83921136     1.73200
Fe257      Fe  0.05339531  0.05315672  0.83887750     1.54400
O258        O  0.03559901  0.07598660  0.79816644    -0.78900
O259        O  0.04575353  0.47278616  0.88022151    -0.77200
O260        O  0.47224821  0.04100405  0.79800413    -0.81400
O261        O  0.47272581  0.04183615  0.87970964    -0.76200
O262        O  0.07708419  0.03719293  0.79753345    -0.78000
O263        O  0.46433580  0.42845538  0.88011468    -0.80800
C264        C  0.00421104  0.06871765  0.89214686     1.00000
C265        C  0.50367053  0.06833235  0.78584781     1.07500
O266        O  0.50482733  0.50248248  0.83911590    -1.09700
O267        O  0.46476798  0.42867952  0.79808294    -0.72200
O268        O  0.43226576  0.45848270  0.79877735    -0.75700
O269        O  0.03609420  0.07581805  0.88018099    -0.76300
C270        C  0.43853140  0.43325174  0.78622558     0.98900
O271        O  0.43284769  0.45931233  0.88058436    -0.74300
O272        O  0.04618464  0.47287941  0.79844915    -0.79500
C273        C  0.07175931  0.50531894  0.89209921     1.01500
C274        C  0.07158041  0.00533437  0.78572158     1.07500
O275        O  0.07773504  0.03714233  0.87955746    -0.75100
C276        C  0.43866187  0.43360167  0.89264530     1.05800
C277        C  0.09562951  0.00575301  0.75682107    -0.10500
C278        C  0.11501758  0.50335022  0.73332015    -0.12000
C279        C  0.11527672  0.50336211  0.94435544    -0.10500
C280        C  0.09593375  0.50582894  0.92087509    -0.12000
C281        C  0.00341995  0.09260128  0.92088363    -0.10500
C282        C  0.00030499  0.11184789  0.94431982    -0.12000
C283        C  0.50275831  0.09211077  0.75704523    -0.10500
C284        C  0.49966277  0.11134931  0.73356935    -0.12000
C285        C  0.39203038  0.38856569  0.94511306    -0.10500
C286        C  0.41435903  0.40873279  0.92157916    -0.12000
C287        C  0.41415355  0.40830824  0.75746477    -0.10500
C288        C  0.39184779  0.38812947  0.73400053    -0.12000
C289        C  0.06639002  0.22706068  0.67277903    -0.10500
C290        C  0.09688475  0.25667478  0.67296365    -0.12000
C291        C  0.16326372  0.39809517  0.67270958    -0.10500
C292        C  0.16189727  0.42696867  0.67250299    -0.12000
C293        C  0.23671692  0.33445465  0.67310257    -0.10500
C294        C  0.26723282  0.33728768  0.67300322    -0.12000
C295        C  0.22966940  0.06969602  0.67210421    -0.10500
C296        C  0.25940478  0.10018956  0.67197899    -0.12000
C297        C  0.34001171  0.27196504  0.67243442    -0.10500
C298        C  0.33944101  0.24201963  0.67221360    -0.12000
C299        C  0.39837843  0.16347455  0.67191432    -0.10500
C300        C  0.42611350  0.16083028  0.67204878    -0.12000
C301        C  0.33600018  0.70491387  0.00532750     0.05900
C302        C  0.36856006  0.70239775  0.33857559    -0.10200
C303        C  0.36502744  0.66620432  0.33849108     0.03400
C304        C  0.32894307  0.63256342  0.33845480    -0.08700
C305        C  0.29634645  0.63499631  0.00520899     0.05900
C306        C  0.29988472  0.67117871  0.00530671    -0.08200
H307        H  0.39649184  0.72845992  0.33862996     0.11500
H308        H  0.32623502  0.60456148  0.33841613     0.09000
H309        H  0.27466099  0.67308305  0.00540808     0.08900
C310        C  0.20067899  0.83189145  0.00649096     0.05900
C311        C  0.19948801  0.86567360  0.00638803    -0.10200
C312        C  0.16450295  0.86341851  0.00628257     0.03400
C313        C  0.13069213  0.82735859  0.00631004    -0.08700
C314        C  0.13182564  0.79353184  0.00641960     0.05900
C315        C  0.16683938  0.79577879  0.00651854    -0.08200
H316        H  0.22568985  0.89360998  0.00633598     0.11500
H317        H  0.10358563  0.82562397  0.00619736     0.09000
H318        H  0.16775321  0.76961534  0.00656297     0.09200
C319        C  0.30444153  0.84093375  0.00624892     0.89300
C320        C  0.32884664  0.86255581  0.03994334    -0.50900
C321        C  0.36351723  0.86602344  0.03973676     0.12200
C322        C  0.37052217  0.84737008  0.00613719     0.23200
C323        C  0.32896693  0.86288931  0.30596909    -0.51700
C324        C  0.36364032  0.86634885  0.30606032     0.12300
C325        C  0.30199146  0.80208746  0.00607925    -0.51200
C326        C  0.33658086  0.80544798  0.00601296     0.12900
H327        H  0.31995255  0.87483543  0.06145569     0.17400
H328        H  0.39878140  0.85020387  0.00609137     0.03100
H329        H  0.32012983  0.87534100  0.28457931     0.17700
H330        H  0.27535816  0.77443752  0.00599242     0.17500
C331        C  0.45985019  0.65759087  0.00551943     0.89300
C332        C  0.46240050  0.63615884  0.30513835    -0.50900
C333        C  0.99377323  0.63313889  0.30542169     0.12200
C334        C  0.01974344  0.65190708  0.00572335     0.23200
C335        C  0.46197072  0.63578398  0.03916697    -0.51700
C336        C  0.49335472  0.63277681  0.03909428     0.12300
C337        C  0.49722933  0.69666298  0.00574195    -0.51200
C338        C  0.02854769  0.69360608  0.00585346     0.12900
H339        H  0.44104257  0.62384273  0.28349537     0.17400
H340        H  0.04529366  0.64942371  0.00581187     0.03100
H341        H  0.44036344  0.62326788  0.06062874     0.17700
H342        H  0.99881356  0.72418819  0.00582071     0.17500
C343        C  0.15965266  0.96176583  0.00569432     0.89300
C344        C  0.13858647  0.96460342  0.03930242    -0.50900
C345        C  0.13623396  0.99681849  0.03906083     0.12200
C346        C  0.15532309  0.52334516  0.00552356     0.23200
C347        C  0.13871518  0.96457186  0.30531310    -0.51700
C348        C  0.13637153  0.99680144  0.30537831     0.12300
C349        C  0.19847616  0.99931387  0.00566813    -0.51200
C350        C  0.19617602  0.53155211  0.00556976     0.12900
H351        H  0.12591347  0.94273819  0.06081282     0.17400
H352        H  0.15338001  0.54958776  0.00545480     0.03100
H353        H  0.12612407  0.94268541  0.28387012     0.17700
H354        H  0.22529828  0.50034358  0.00569798     0.17500
Fe355      Fe  0.45577378  0.00030189  0.17259403     1.65800
Fe356      Fe  0.00524238  0.95393293  0.17254468     1.73200
Fe357      Fe  0.05339528  0.55315666  0.17221089     1.54400
O358        O  0.03559911  0.57598666  0.13149981    -0.78900
O359        O  0.04575345  0.97278599  0.21355485    -0.77200
O360        O  0.47224817  0.54100403  0.13133743    -0.81400
O361        O  0.47272582  0.54183614  0.21304297    -0.76200
O362        O  0.07708415  0.53719292  0.13086687    -0.78000
O363        O  0.46433571  0.92845540  0.21344800    -0.80800
C364        C  0.00421092  0.56871763  0.22548017     1.00000
C365        C  0.50367055  0.56833234  0.11918114     1.07500
O366        O  0.50482730  0.00248246  0.17244927    -1.09700
O367        O  0.46476797  0.92867953  0.13141632    -0.72200
O368        O  0.43226574  0.95848268  0.13211067    -0.75700
O369        O  0.03609406  0.57581796  0.21351435    -0.76300
C370        C  0.43853139  0.93325173  0.11955891     0.98900
O371        O  0.43284762  0.95931235  0.21391763    -0.74300
O372        O  0.04618456  0.97287931  0.13178242    -0.79500
C373        C  0.07175925  0.00531882  0.22543254     1.01500
C374        C  0.07158041  0.50533436  0.11905498     1.07500
O375        O  0.07773493  0.53714217  0.21289083    -0.75100
C376        C  0.43866185  0.93360174  0.22597868     1.05800
C377        C  0.09562948  0.50575295  0.09015439    -0.10500
C378        C  0.11501755  0.00335027  0.06665347    -0.12000
C379        C  0.11527670  0.00336207  0.27768867    -0.10500
C380        C  0.09593368  0.00582894  0.25420842    -0.12000
C381        C  0.00341991  0.59260132  0.25421693    -0.10500
C382        C  0.00030496  0.61184788  0.27765317    -0.12000
C383        C  0.50275829  0.59211076  0.09037859    -0.10500
C384        C  0.49966270  0.61134928  0.06690271    -0.12000
C385        C  0.39203040  0.88856567  0.27844643    -0.10500
C386        C  0.41435895  0.90873271  0.25491246    -0.12000
C387        C  0.41415344  0.90830823  0.09079809    -0.10500
C388        C  0.39184788  0.88812938  0.06733372    -0.12000
C389        C  0.06638997  0.72706074  0.00611241    -0.10500
C390        C  0.09688483  0.75667468  0.00629700    -0.12000
C391        C  0.16326364  0.89809509  0.00604293    -0.10500
C392        C  0.16189718  0.92696858  0.00583629    -0.12000
C393        C  0.23671693  0.83445464  0.00643594    -0.10500
C394        C  0.26723282  0.83728763  0.00633664    -0.12000
C395        C  0.22966935  0.56969605  0.00543756    -0.10500
C396        C  0.25940474  0.60018959  0.00531235    -0.12000
C397        C  0.34001183  0.77196512  0.00576749    -0.10500
C398        C  0.33944092  0.74201959  0.00554693    -0.12000
C399        C  0.39837837  0.66347450  0.00524767    -0.10500
C400        C  0.42611345  0.66083025  0.00538209    -0.12000
C401        C  0.33600016  0.70491397  0.33866095     0.05900
C402        C  0.36856002  0.70239760  0.67190900    -0.10200
C403        C  0.36502743  0.66620400  0.67182425     0.03400
C404        C  0.32894322  0.63256308  0.67178815    -0.08700
C405        C  0.29634630  0.63499649  0.33854246     0.05900
C406        C  0.29988467  0.67117889  0.33864000    -0.08200
H407        H  0.39649147  0.72845967  0.67196289     0.11500
H408        H  0.32623519  0.60456059  0.67174929     0.09000
H409        H  0.27466058  0.67308341  0.33874157     0.08900
C410        C  0.20067892  0.83189127  0.33982424     0.05900
C411        C  0.19948787  0.86567348  0.33972149    -0.10200
C412        C  0.16450264  0.86341833  0.33961586     0.03400
C413        C  0.13069191  0.82735847  0.33964342    -0.08700
C414        C  0.13182545  0.79353177  0.33975291     0.05900
C415        C  0.16683927  0.79577868  0.33985193    -0.08200
H416        H  0.22568942  0.89360980  0.33966952     0.11500
H417        H  0.10358484  0.82562369  0.33953014     0.09000
H418        H  0.16775283  0.76961479  0.33989575     0.09200
C419        C  0.30444161  0.84093377  0.33958241     0.89300
C420        C  0.32884663  0.86255583  0.37327672    -0.50900
C421        C  0.36351724  0.86602344  0.37307025     0.12200
C422        C  0.37052231  0.84737007  0.33947075     0.23200
C423        C  0.32896699  0.86288927  0.63930237    -0.51700
C424        C  0.36364032  0.86634879  0.63939353     0.12300
C425        C  0.30199157  0.80208756  0.33941267    -0.51200
C426        C  0.33658100  0.80544802  0.33934638     0.12900
H427        H  0.31995236  0.87483551  0.39478912     0.17400
H428        H  0.39878172  0.85020377  0.33942532     0.03100
H429        H  0.32012969  0.87534057  0.61791220     0.17700
H430        H  0.27535827  0.77443763  0.33932572     0.17500
C431        C  0.45985012  0.65759087  0.33885263     0.89300
C432        C  0.46240075  0.63615906  0.63847185    -0.50900
C433        C  0.99377347  0.63313891  0.63875525     0.12200
C434        C  0.01974332  0.65190711  0.33905665     0.23200
C435        C  0.46197076  0.63578410  0.37250017    -0.51700
C436        C  0.49335476  0.63277692  0.37242745     0.12300
C437        C  0.49722922  0.69666298  0.33907516    -0.51200
C438        C  0.02854763  0.69360606  0.33918668     0.12900
H439        H  0.44104280  0.62384295  0.61682944     0.17400
H440        H  0.04529335  0.64942379  0.33914520     0.03100
H441        H  0.44036375  0.62326814  0.39396183     0.17700
H442        H  0.99881368  0.72418806  0.33915396     0.17500
C443        C  0.15965242  0.96176580  0.33902754     0.89300
C444        C  0.13858642  0.96460336  0.37263576    -0.50900
C445        C  0.13623402  0.99681851  0.37239416     0.12200
C446        C  0.15532302  0.52334510  0.33885696     0.23200
C447        C  0.13871537  0.96457185  0.63864666    -0.51700
C448        C  0.13637177  0.99680149  0.63871165     0.12300
C449        C  0.19847591  0.99931391  0.33900145    -0.51200
C450        C  0.19617588  0.53155217  0.33890307     0.12900
H451        H  0.12591337  0.94273815  0.39414616     0.17400
H452        H  0.15337984  0.54958750  0.33878844     0.03100
H453        H  0.12612462  0.94268553  0.61720398     0.17700
H454        H  0.22529758  0.50034353  0.33903108     0.17500
Fe455      Fe  0.45577385  0.00030188  0.50592730     1.65800
Fe456      Fe  0.00524245  0.95393300  0.50587794     1.73200
Fe457      Fe  0.05339533  0.55315670  0.50554421     1.54400
O458        O  0.03559924  0.57598664  0.46483313    -0.78900
O459        O  0.04575355  0.97278613  0.54688806    -0.77200
O460        O  0.47224817  0.54100411  0.46467074    -0.81400
O461        O  0.47272575  0.54183614  0.54637627    -0.76200
O462        O  0.07708420  0.53719296  0.46420027    -0.78000
O463        O  0.46433585  0.92845552  0.54678127    -0.80800
C464        C  0.00421095  0.56871752  0.55881364     1.00000
C465        C  0.50367062  0.56833240  0.45251452     1.07500
O466        O  0.50482737  0.00248250  0.50578258    -1.09700
O467        O  0.46476810  0.92867953  0.46474954    -0.72200
O468        O  0.43226596  0.95848276  0.46544389    -0.75700
O469        O  0.03609409  0.57581794  0.54684769    -0.76300
C470        C  0.43853144  0.93325164  0.45289224     0.98900
O471        O  0.43284771  0.95931229  0.54725089    -0.74300
O472        O  0.04618462  0.97287945  0.46511579    -0.79500
C473        C  0.07175948  0.00531896  0.55876575     1.01500
C474        C  0.07158042  0.50533440  0.45238826     1.07500
O475        O  0.07773497  0.53714221  0.54622428    -0.75100
C476        C  0.43866193  0.93360173  0.55931195     1.05800
C477        C  0.09562960  0.50575306  0.42348761    -0.10500
C478        C  0.11501760  0.00335027  0.39998667    -0.12000
C479        C  0.11527673  0.00336203  0.61102205    -0.10500
C480        C  0.09593385  0.00582910  0.58754176    -0.12000
C481        C  0.00341983  0.59260127  0.58755033    -0.10500
C482        C  0.00030503  0.61184796  0.61098656    -0.12000
C483        C  0.50275827  0.59211073  0.42371187    -0.10500
C484        C  0.49966280  0.61134932  0.40023591    -0.12000
C485        C  0.39203047  0.88856575  0.61177976    -0.10500
C486        C  0.41435909  0.90873281  0.58824585    -0.12000
C487        C  0.41415359  0.90830820  0.42413133    -0.10500
C488        C  0.39184776  0.88812934  0.40066717    -0.12000
C489        C  0.06638999  0.72706069  0.33944574    -0.10500
C490        C  0.09688477  0.75667470  0.33963045    -0.12000
C491        C  0.16326368  0.89809514  0.33937624    -0.10500
C492        C  0.16189720  0.92696864  0.33916956    -0.12000
C493        C  0.23671699  0.83445468  0.33976922    -0.10500
C494        C  0.26723289  0.83728772  0.33966991    -0.12000
C495        C  0.22966940  0.56969609  0.33877099    -0.10500
C496        C  0.25940475  0.60018968  0.33864559    -0.12000
C497        C  0.34001184  0.77196509  0.33910094    -0.10500
C498        C  0.33944096  0.74201960  0.33888016    -0.12000
C499        C  0.39837836  0.66347451  0.33858093    -0.10500
C500        C  0.42611341  0.66083020  0.33871551    -0.12000
C501        C  0.33600024  0.70491384  0.67199424     0.05900
C502        C  0.36856001  0.70239765  0.00524233    -0.10200
C503        C  0.36502743  0.66620420  0.00515762     0.03400
C504        C  0.32894315  0.63256328  0.00512151    -0.08700
C505        C  0.29634654  0.63499615  0.67187563     0.05900
C506        C  0.29988483  0.67117872  0.67197338    -0.08200
H507        H  0.39649155  0.72845967  0.00529617     0.11500
H508        H  0.32623504  0.60456131  0.00508264     0.09000
H509        H  0.27466114  0.67308323  0.67207479     0.08900
C510        C  0.20067876  0.83189106  0.67315760     0.05900
C511        C  0.19948771  0.86567324  0.67305468    -0.10200
C512        C  0.16450250  0.86341820  0.67294922     0.03400
C513        C  0.13069186  0.82735842  0.67297667    -0.08700
C514        C  0.13182542  0.79353171  0.67308625     0.05900
C515        C  0.16683925  0.79577860  0.67318518    -0.08200
H516        H  0.22568905  0.89360912  0.67300263     0.11500
H517        H  0.10358482  0.82562366  0.67286402     0.09000
H518        H  0.16775293  0.76961477  0.67322963     0.09200
C519        C  0.30444158  0.84093377  0.67291575     0.89300
C520        C  0.32884662  0.86255592  0.70661009    -0.50900
C521        C  0.36351721  0.86602352  0.70640360     0.12200
C522        C  0.37052229  0.84737010  0.67280403     0.23200
C523        C  0.32896678  0.86288938  0.97263556    -0.51700
C524        C  0.36364009  0.86634890  0.97272673     0.12300
C525        C  0.30199157  0.80208754  0.67274599    -0.51200
C526        C  0.33658096  0.80544802  0.67267971     0.12900
H527        H  0.31995235  0.87483573  0.72812249     0.17400
H528        H  0.39878164  0.85020379  0.67275856     0.03100
H529        H  0.32012932  0.87534084  0.95124545     0.17700
H530        H  0.27535828  0.77443751  0.67265919     0.17500
C531        C  0.45985035  0.65759096  0.67218616     0.89300
C532        C  0.46240064  0.63615898  0.97180507    -0.50900
C533        C  0.99377330  0.63313882  0.97208841     0.12200
C534        C  0.01974346  0.65190714  0.67239014     0.23200
C535        C  0.46197091  0.63578403  0.70583363    -0.51700
C536        C  0.49335492  0.63277685  0.70576086     0.12300
C537        C  0.49722939  0.69666301  0.67240862    -0.51200
C538        C  0.02854769  0.69360612  0.67252019     0.12900
H539        H  0.44104256  0.62384281  0.95016220     0.17400
H540        H  0.04529375  0.64942382  0.67247858     0.03100
H541        H  0.44036392  0.62326792  0.72729534     0.17700
H542        H  0.99881361  0.72418827  0.67248745     0.17500
C543        C  0.15965275  0.96176593  0.67236111     0.89300
C544        C  0.13858657  0.96460349  0.70596917    -0.50900
C545        C  0.13623402  0.99681853  0.70572753     0.12200
C546        C  0.15532315  0.52334501  0.67219022     0.23200
C547        C  0.13871527  0.96457180  0.97197994    -0.51700
C548        C  0.13637166  0.99680142  0.97204503     0.12300
C549        C  0.19847621  0.99931390  0.67233490    -0.51200
C550        C  0.19617615  0.53155207  0.67223646     0.12900
H551        H  0.12591338  0.94273813  0.72747941     0.17400
H552        H  0.15338019  0.54958739  0.67212149     0.03100
H553        H  0.12612447  0.94268541  0.95053691     0.17700
H554        H  0.22529845  0.50034368  0.67236462     0.17500
Fe555      Fe  0.45577382  0.00030188  0.83926070     1.65800
Fe556      Fe  0.00524242  0.95393297  0.83921132     1.73200
Fe557      Fe  0.05339531  0.55315669  0.83887750     1.54400
O558        O  0.03559908  0.57598662  0.79816639    -0.78900
O559        O  0.04575354  0.97278619  0.88022150    -0.77200
O560        O  0.47224821  0.54100403  0.79800418    -0.81400
O561        O  0.47272580  0.54183611  0.87970967    -0.76200
O562        O  0.07708419  0.53719294  0.79753347    -0.78000
O563        O  0.46433581  0.92845541  0.88011468    -0.80800
C564        C  0.00421103  0.56871762  0.89214689     1.00000
C565        C  0.50367055  0.56833238  0.78584785     1.07500
O566        O  0.50482734  0.00248248  0.83911591    -1.09700
O567        O  0.46476799  0.92867949  0.79808290    -0.72200
O568        O  0.43226579  0.95848266  0.79877730    -0.75700
O569        O  0.03609418  0.57581802  0.88018100    -0.76300
C570        C  0.43853135  0.93325163  0.78622561     0.98900
O571        O  0.43284774  0.95931240  0.88058435    -0.74300
O572        O  0.04618465  0.97287943  0.79844912    -0.79500
C573        C  0.07175935  0.00531903  0.89209920     1.01500
C574        C  0.07158040  0.50533436  0.78572158     1.07500
O575        O  0.07773496  0.53714219  0.87955745    -0.75100
C576        C  0.43866192  0.93360174  0.89264532     1.05800
C577        C  0.09562946  0.50575297  0.75682096    -0.10500
C578        C  0.11501756  0.00335029  0.73332017    -0.12000
C579        C  0.11527672  0.00336211  0.94435544    -0.10500
C580        C  0.09593380  0.00582904  0.92087509    -0.12000
C581        C  0.00341994  0.59260125  0.92088364    -0.10500
C582        C  0.00030502  0.61184791  0.94431979    -0.12000
C583        C  0.50275838  0.59211081  0.75704521    -0.10500
C584        C  0.49966278  0.61134931  0.73356930    -0.12000
C585        C  0.39203038  0.88856578  0.94511303    -0.10500
C586        C  0.41435906  0.90873278  0.92157913    -0.12000
C587        C  0.41415357  0.90830826  0.75746473    -0.10500
C588        C  0.39184779  0.88812946  0.73400053    -0.12000
C589        C  0.06638996  0.72706066  0.67277907    -0.10500
C590        C  0.09688471  0.75667467  0.67296380    -0.12000
C591        C  0.16326362  0.89809512  0.67270958    -0.10500
C592        C  0.16189721  0.92696866  0.67250301    -0.12000
C593        C  0.23671691  0.83445467  0.67310257    -0.10500
C594        C  0.26723281  0.83728768  0.67300322    -0.12000
C595        C  0.22966944  0.56969610  0.67210421    -0.10500
C596        C  0.25940480  0.60018965  0.67197899    -0.12000
C597        C  0.34001175  0.77196504  0.67243442    -0.10500
C598        C  0.33944105  0.74201962  0.67221360    -0.12000
C599        C  0.39837846  0.66347456  0.67191432    -0.10500
C600        C  0.42611351  0.66083026  0.67204878    -0.12000
C601        C  0.83600016  0.20491393  0.00532759     0.05900
C602        C  0.86856002  0.20239770  0.33857560    -0.10200
C603        C  0.86502742  0.16620431  0.33849108     0.03400
C604        C  0.82894311  0.13256338  0.33845481    -0.08700
C605        C  0.79634632  0.13499639  0.00520898     0.05900
C606        C  0.79988466  0.17117880  0.00530673    -0.08200
H607        H  0.89649185  0.22845988  0.33862997     0.11500
H608        H  0.82623510  0.10456149  0.33841615     0.09000
H609        H  0.77466065  0.17308344  0.00540814     0.08900
C610        C  0.70067897  0.33189153  0.00649095     0.05900
C611        C  0.69948798  0.36567363  0.00638803    -0.10200
C612        C  0.66450290  0.36341855  0.00628257     0.03400
C613        C  0.63069209  0.32735859  0.00631003    -0.08700
C614        C  0.63182558  0.29353192  0.00641960     0.05900
C615        C  0.66683928  0.29577879  0.00651853    -0.08200
H616        H  0.72568993  0.39361008  0.00633598     0.11500
H617        H  0.60358551  0.32562390  0.00619737     0.09000
H618        H  0.66775284  0.26961547  0.00656299     0.09200
C619        C  0.80444135  0.34093354  0.00624899     0.89300
C620        C  0.82884656  0.36255581  0.03994346    -0.50900
C621        C  0.86351715  0.36602346  0.03973683     0.12200
C622        C  0.87052199  0.34736994  0.00613730     0.23200
C623        C  0.82896694  0.36288923  0.30596912    -0.51700
C624        C  0.86364033  0.36634881  0.30606034     0.12300
C625        C  0.80199126  0.30208723  0.00607922    -0.51200
C626        C  0.83658060  0.30544778  0.00601295     0.12900
H627        H  0.81995250  0.37483546  0.06145583     0.17400
H628        H  0.89878118  0.35020364  0.00609171     0.03100
H629        H  0.82012997  0.37534095  0.28457932     0.17700
H630        H  0.77535765  0.27443685  0.00599252     0.17500
C631        C  0.95985026  0.15759092  0.00551931     0.89300
C632        C  0.96240051  0.13615889  0.30513834    -0.50900
C633        C  0.49377324  0.13313891  0.30542168     0.12200
C634        C  0.51974334  0.15190704  0.00572344     0.23200
C635        C  0.96197081  0.13578405  0.03916681    -0.51700
C636        C  0.99335494  0.13277696  0.03909419     0.12300
C637        C  0.99722934  0.19666294  0.00574194    -0.51200
C638        C  0.52854764  0.19360604  0.00585353     0.12900
H639        H  0.94104254  0.12384284  0.28349540     0.17400
H640        H  0.54529355  0.14942365  0.00581199     0.03100
H641        H  0.94036407  0.12326853  0.06062850     0.17700
H642        H  0.49881352  0.22418817  0.00582079     0.17500
C643        C  0.65965262  0.46176584  0.00569434     0.89300
C644        C  0.63858644  0.46460346  0.03930243    -0.50900
C645        C  0.63623398  0.49681856  0.03906083     0.12200
C646        C  0.65532304  0.02334510  0.00552359     0.23200
C647        C  0.63871526  0.46457192  0.30531318    -0.51700
C648        C  0.63637164  0.49680146  0.30537840     0.12300
C649        C  0.69847612  0.49931390  0.00566813    -0.51200
C650        C  0.69617604  0.03155213  0.00556977     0.12900
H651        H  0.62591345  0.44273827  0.06081286     0.17400
H652        H  0.65337988  0.04958766  0.00545487     0.03100
H653        H  0.62612430  0.44268576  0.28387030     0.17700
H654        H  0.72529827  0.00034350  0.00569797     0.17500
Fe655      Fe  0.95577381  0.50030182  0.17259402     1.65800
Fe656      Fe  0.50524243  0.45393294  0.17254466     1.73200
Fe657      Fe  0.55339531  0.05315668  0.17221090     1.54400
O658        O  0.53559920  0.07598672  0.13149983    -0.78900
O659        O  0.54575360  0.47278612  0.21355481    -0.77200
O660        O  0.97224820  0.04100409  0.13133747    -0.81400
O661        O  0.97272577  0.04183614  0.21304300    -0.76200
O662        O  0.57708414  0.03719293  0.13086684    -0.78000
O663        O  0.96433565  0.42845528  0.21344797    -0.80800
C664        C  0.50421097  0.06871761  0.22548024     1.00000
C665        C  0.00367057  0.06833237  0.11918118     1.07500
O666        O  0.00482729  0.50248241  0.17244928    -1.09700
O667        O  0.96476792  0.42867938  0.13141625    -0.72200
O668        O  0.93226579  0.45848265  0.13211066    -0.75700
O669        O  0.53609409  0.07581798  0.21351425    -0.76300
C670        C  0.93853142  0.43325169  0.11955885     0.98900
O671        O  0.93284767  0.45931226  0.21391762    -0.74300
O672        O  0.54618466  0.47287938  0.13178239    -0.79500
C673        C  0.57175938  0.50531892  0.22543252     1.01500
C674        C  0.57158034  0.00533429  0.11905497     1.07500
O675        O  0.57773486  0.03714210  0.21289093    -0.75100
C676        C  0.93866185  0.43360165  0.22597868     1.05800
C677        C  0.59562936  0.00575280  0.09015438    -0.10500
C678        C  0.61501753  0.50335025  0.06665348    -0.12000
C679        C  0.61527682  0.50336221  0.27768876    -0.10500
C680        C  0.59593377  0.50582903  0.25420849    -0.12000
C681        C  0.50341986  0.09260129  0.25421697    -0.10500
C682        C  0.50030499  0.11184793  0.27765318    -0.12000
C683        C  0.00275830  0.09211078  0.09037862    -0.10500
C684        C  0.99966276  0.11134928  0.06690266    -0.12000
C685        C  0.89203036  0.38856564  0.27844635    -0.10500
C686        C  0.91435903  0.40873272  0.25491248    -0.12000
C687        C  0.91415355  0.40830825  0.09079805    -0.10500
C688        C  0.89184783  0.38812939  0.06733382    -0.12000
C689        C  0.56638997  0.22706071  0.00611243    -0.10500
C690        C  0.59688478  0.25667472  0.00629715    -0.12000
C691        C  0.66326359  0.39809512  0.00604293    -0.10500
C692        C  0.66189720  0.42696864  0.00583631    -0.12000
C693        C  0.73671687  0.33445457  0.00643594    -0.10500
C694        C  0.76723274  0.33728754  0.00633666    -0.12000
C695        C  0.72966938  0.06969612  0.00543756    -0.10500
C696        C  0.75940480  0.10018959  0.00531235    -0.12000
C697        C  0.84001184  0.27196511  0.00576775    -0.10500
C698        C  0.83944098  0.24201963  0.00554696    -0.12000
C699        C  0.89837842  0.16347450  0.00524769    -0.10500
C700        C  0.92611350  0.16083025  0.00538213    -0.12000
C701        C  0.83600012  0.20491391  0.33866094     0.05900
C702        C  0.86856005  0.20239767  0.67190900    -0.10200
C703        C  0.86502747  0.16620421  0.67182425     0.03400
C704        C  0.82894318  0.13256329  0.67178815    -0.08700
C705        C  0.79634632  0.13499641  0.33854246     0.05900
C706        C  0.79988461  0.17117876  0.33863998    -0.08200
H707        H  0.89649159  0.22845968  0.67196289     0.11500
H708        H  0.82623508  0.10456133  0.67174929     0.09000
H709        H  0.77466046  0.17308313  0.33874187     0.08900
C710        C  0.70067889  0.33189139  0.33982424     0.05900
C711        C  0.69948776  0.36567345  0.33972149    -0.10200
C712        C  0.66450256  0.36341831  0.33961586     0.03400
C713        C  0.63069182  0.32735841  0.33964342    -0.08700
C714        C  0.63182539  0.29353179  0.33975291     0.05900
C715        C  0.66683925  0.29577874  0.33985193    -0.08200
H716        H  0.72568942  0.39360988  0.33966952     0.11500
H717        H  0.60358479  0.32562371  0.33953014     0.09000
H718        H  0.66775296  0.26961530  0.33989575     0.09200
C719        C  0.80444148  0.34093363  0.33958248     0.89300
C720        C  0.82884655  0.36255579  0.37327677    -0.50900
C721        C  0.86351712  0.36602343  0.37307026     0.12200
C722        C  0.87052222  0.34737002  0.33947077     0.23200
C723        C  0.82896700  0.36288934  0.63930232    -0.51700
C724        C  0.86364029  0.36634882  0.63939347     0.12300
C725        C  0.80199145  0.30208744  0.33941264    -0.51200
C726        C  0.83658079  0.30544789  0.33934636     0.12900
H727        H  0.81995238  0.37483589  0.39478913     0.17400
H728        H  0.89878163  0.35020379  0.33942543     0.03100
H729        H  0.82012985  0.37534099  0.61791214     0.17700
H730        H  0.77535782  0.27443701  0.33932565     0.17500
C731        C  0.95985014  0.15759089  0.33885260     0.89300
C732        C  0.96240075  0.13615907  0.63847188    -0.50900
C733        C  0.49377347  0.13313896  0.63875523     0.12200
C734        C  0.51974331  0.15190713  0.33905667     0.23200
C735        C  0.96197080  0.13578411  0.37250007    -0.51700
C736        C  0.99335484  0.13277695  0.37242743     0.12300
C737        C  0.99722934  0.19666293  0.33907520    -0.51200
C738        C  0.52854758  0.19360612  0.33918673     0.12900
H739        H  0.94104283  0.12384299  0.61682943     0.17400
H740        H  0.54529333  0.14942375  0.33914533     0.03100
H741        H  0.94036407  0.12326860  0.39396183     0.17700
H742        H  0.49881346  0.22418819  0.33915396     0.17500
C743        C  0.65965246  0.46176577  0.33902767     0.89300
C744        C  0.63858638  0.46460329  0.37263584    -0.50900
C745        C  0.63623404  0.49681839  0.37239423     0.12200
C746        C  0.65532297  0.02334508  0.33885692     0.23200
C747        C  0.63871534  0.46457179  0.63864664    -0.51700
C748        C  0.63637173  0.49680139  0.63871166     0.12300
C749        C  0.69847600  0.49931385  0.33900154    -0.51200
C750        C  0.69617583  0.03155213  0.33890316     0.12900
H751        H  0.62591329  0.44273807  0.39414620     0.17400
H752        H  0.65338010  0.04958771  0.33878840     0.03100
H753        H  0.62612457  0.44268546  0.61720395     0.17700
H754        H  0.72529771  0.00034359  0.33903114     0.17500
Fe755      Fe  0.95577382  0.50030187  0.50592734     1.65800
Fe756      Fe  0.50524244  0.45393301  0.50587797     1.73200
Fe757      Fe  0.55339535  0.05315673  0.50554422     1.54400
O758        O  0.53559913  0.07598661  0.46483315    -0.78900
O759        O  0.54575357  0.47278618  0.54688809    -0.77200
O760        O  0.97224824  0.04100411  0.46467071    -0.81400
O761        O  0.97272584  0.04183616  0.54637624    -0.76200
O762        O  0.57708419  0.03719295  0.46420026    -0.78000
O763        O  0.96433586  0.42845551  0.54678127    -0.80800
C764        C  0.50421096  0.06871755  0.55881361     1.00000
C765        C  0.00367063  0.06833236  0.45251451     1.07500
O766        O  0.00482734  0.50248250  0.50578257    -1.09700
O767        O  0.96476808  0.42867956  0.46474959    -0.72200
O768        O  0.93226591  0.45848279  0.46544394    -0.75700
O769        O  0.53609413  0.07581799  0.54684768    -0.76300
C770        C  0.93853148  0.43325175  0.45289221     0.98900
O771        O  0.93284764  0.45931222  0.54725089    -0.74300
O772        O  0.54618461  0.47287944  0.46511577    -0.79500
C773        C  0.57175945  0.50531893  0.55876576     1.01500
C774        C  0.57158040  0.00533439  0.45238825     1.07500
O775        O  0.57773502  0.03714228  0.54622433    -0.75100
C776        C  0.93866188  0.43360168  0.55931191     1.05800
C777        C  0.59562953  0.00575297  0.42348757    -0.10500
C778        C  0.61501759  0.50335024  0.39998667    -0.12000
C779        C  0.61527676  0.50336213  0.61102207    -0.10500
C780        C  0.59593375  0.50582896  0.58754176    -0.12000
C781        C  0.50341982  0.09260130  0.58755030    -0.10500
C782        C  0.50030500  0.11184794  0.61098658    -0.12000
C783        C  0.00275820  0.09211067  0.42371191    -0.10500
C784        C  0.99966280  0.11134927  0.40023590    -0.12000
C785        C  0.89203044  0.38856571  0.61177967    -0.10500
C786        C  0.91435908  0.40873286  0.58824581    -0.12000
C787        C  0.91415353  0.40830817  0.42413136    -0.10500
C788        C  0.89184770  0.38812935  0.40066716    -0.12000
C789        C  0.56638994  0.22706072  0.33944575    -0.10500
C790        C  0.59688478  0.25667464  0.33963044    -0.12000
C791        C  0.66326356  0.39809509  0.33937623    -0.10500
C792        C  0.66189712  0.42696861  0.33916957    -0.12000
C793        C  0.73671694  0.33445466  0.33976919    -0.10500
C794        C  0.76723283  0.33728766  0.33966984    -0.12000
C795        C  0.72966936  0.06969603  0.33877091    -0.10500
C796        C  0.75940474  0.10018961  0.33864559    -0.12000
C797        C  0.84001183  0.27196508  0.33910094    -0.10500
C798        C  0.83944095  0.24201958  0.33888017    -0.12000
C799        C  0.89837829  0.16347451  0.33858093    -0.10500
C800        C  0.92611338  0.16083029  0.33871555    -0.12000
C801        C  0.83600022  0.20491389  0.67199424     0.05900
C802        C  0.86856004  0.20239768  0.00524235    -0.10200
C803        C  0.86502747  0.16620429  0.00515760     0.03400
C804        C  0.82894311  0.13256334  0.00512151    -0.08700
C805        C  0.79634648  0.13499632  0.67187563     0.05900
C806        C  0.79988475  0.17117872  0.67197338    -0.08200
H807        H  0.89649185  0.22845988  0.00529624     0.11500
H808        H  0.82623510  0.10456146  0.00508264     0.09000
H809        H  0.77466103  0.17308307  0.67207479     0.08900
C810        C  0.70067902  0.33189148  0.67315760     0.05900
C811        C  0.69948809  0.36567363  0.67305468    -0.10200
C812        C  0.66450302  0.36341853  0.67294922     0.03400
C813        C  0.63069218  0.32735860  0.67297668    -0.08700
C814        C  0.63182568  0.29353189  0.67308625     0.05900
C815        C  0.66683940  0.29577881  0.67318519    -0.08200
H816        H  0.72568995  0.39361004  0.67300263     0.11500
H817        H  0.60358573  0.32562405  0.67286401     0.09000
H818        H  0.66775321  0.26961536  0.67322962     0.09200
C819        C  0.80444163  0.34093382  0.67291572     0.89300
C820        C  0.82884669  0.36255598  0.70661013    -0.50900
C821        C  0.86351726  0.36602350  0.70640354     0.12200
C822        C  0.87052229  0.34737007  0.67280397     0.23200
C823        C  0.82896669  0.36288922  0.97263561    -0.51700
C824        C  0.86364000  0.36634880  0.97272680     0.12300
C825        C  0.80199160  0.30208754  0.67274598    -0.51200
C826        C  0.83658098  0.30544802  0.67267969     0.12900
H827        H  0.81995275  0.37483603  0.72812245     0.17400
H828        H  0.89878167  0.35020380  0.67275846     0.03100
H829        H  0.82012943  0.37534107  0.95124551     0.17700
H830        H  0.77535829  0.27443753  0.67265921     0.17500
C831        C  0.95985030  0.15759096  0.67218622     0.89300
C832        C  0.96240065  0.13615901  0.97180507    -0.50900
C833        C  0.49377330  0.13313891  0.97208841     0.12200
C834        C  0.51974344  0.15190708  0.67239014     0.23200
C835        C  0.96197079  0.13578403  0.70583370    -0.51700
C836        C  0.99335479  0.13277682  0.70576097     0.12300
C837        C  0.99722938  0.19666302  0.67240862    -0.51200
C838        C  0.52854774  0.19360611  0.67252007     0.12900
H839        H  0.94104261  0.12384290  0.95016218     0.17400
H840        H  0.54529368  0.14942369  0.67247856     0.03100
H841        H  0.94036351  0.12326789  0.72729546     0.17700
H842        H  0.49881359  0.22418821  0.67248733     0.17500
C843        C  0.65965276  0.46176588  0.67236111     0.89300
C844        C  0.63858653  0.46460343  0.70596920    -0.50900
C845        C  0.63623405  0.49681844  0.70572757     0.12200
C846        C  0.65532315  0.02334511  0.67219022     0.23200
C847        C  0.63871524  0.46457177  0.97197995    -0.51700
C848        C  0.63637165  0.49680142  0.97204502     0.12300
C849        C  0.69847628  0.49931393  0.67233484    -0.51200
C850        C  0.69617610  0.03155208  0.67223644     0.12900
H851        H  0.62591349  0.44273823  0.72747959     0.17400
H852        H  0.65338035  0.04958776  0.67212150     0.03100
H853        H  0.62612443  0.44268535  0.95053693     0.17700
H854        H  0.72529841  0.00034363  0.67236462     0.17500
Fe855      Fe  0.95577378  0.50030185  0.83926073     1.65800
Fe856      Fe  0.50524242  0.45393296  0.83921132     1.73200
Fe857      Fe  0.55339533  0.05315673  0.83887752     1.54400
O858        O  0.53559904  0.07598661  0.79816643    -0.78900
O859        O  0.54575352  0.47278616  0.88022150    -0.77200
O860        O  0.97224822  0.04100406  0.79800413    -0.81400
O861        O  0.97272588  0.04183620  0.87970961    -0.76200
O862        O  0.57708418  0.03719293  0.79753350    -0.78000
O863        O  0.96433580  0.42845539  0.88011469    -0.80800
C864        C  0.50421098  0.06871766  0.89214685     1.00000
C865        C  0.00367052  0.06833235  0.78584781     1.07500
O866        O  0.00482730  0.50248248  0.83911592    -1.09700
O867        O  0.96476804  0.42867954  0.79808297    -0.72200
O868        O  0.93226576  0.45848266  0.79877734    -0.75700
O869        O  0.53609414  0.07581804  0.88018101    -0.76300
C870        C  0.93853145  0.43325174  0.78622557     0.98900
O871        O  0.93284766  0.45931233  0.88058435    -0.74300
O872        O  0.54618463  0.47287941  0.79844907    -0.79500
C873        C  0.57175928  0.50531894  0.89209922     1.01500
C874        C  0.57158046  0.00533438  0.78572162     1.07500
O875        O  0.57773502  0.03714233  0.87955748    -0.75100
C876        C  0.93866185  0.43360167  0.89264529     1.05800
C877        C  0.59562951  0.00575295  0.75682104    -0.10500
C878        C  0.61501757  0.50335023  0.73332015    -0.12000
C879        C  0.61527669  0.50336211  0.94435545    -0.10500
C880        C  0.59593372  0.50582894  0.92087509    -0.12000
C881        C  0.50341996  0.09260128  0.92088366    -0.10500
C882        C  0.50030500  0.11184790  0.94431983    -0.12000
C883        C  0.00275830  0.09211077  0.75704522    -0.10500
C884        C  0.99966278  0.11134931  0.73356934    -0.12000
C885        C  0.89203035  0.38856569  0.94511305    -0.10500
C886        C  0.91435901  0.40873278  0.92157915    -0.12000
C887        C  0.91415351  0.40830826  0.75746477    -0.10500
C888        C  0.89184789  0.38812943  0.73400045    -0.12000
C889        C  0.56639009  0.22706078  0.67277903    -0.10500
C890        C  0.59688486  0.25667481  0.67296365    -0.12000
C891        C  0.66326374  0.39809515  0.67270958    -0.10500
C892        C  0.66189724  0.42696862  0.67250298    -0.12000
C893        C  0.73671694  0.33445465  0.67310258    -0.10500
C894        C  0.76723286  0.33728771  0.67300327    -0.12000
C895        C  0.72966937  0.06969604  0.67210420    -0.10500
C896        C  0.75940476  0.10018959  0.67197899    -0.12000
C897        C  0.84001175  0.27196508  0.67243442    -0.10500
C898        C  0.83944094  0.24201962  0.67221360    -0.12000
C899        C  0.89837841  0.16347451  0.67191432    -0.10500
C900        C  0.92611350  0.16083028  0.67204878    -0.12000
C901        C  0.83600021  0.70491397  0.00532750     0.05900
C902        C  0.86856009  0.70239774  0.33857559    -0.10200
C903        C  0.86502743  0.66620432  0.33849108     0.03400
C904        C  0.82894311  0.63256343  0.33845480    -0.08700
C905        C  0.79634631  0.63499642  0.00520899     0.05900
C906        C  0.79988468  0.67117881  0.00530671    -0.08200
H907        H  0.89649187  0.72845990  0.33862996     0.11500
H908        H  0.82623509  0.60456149  0.33841613     0.09000
H909        H  0.77466058  0.67308330  0.00540807     0.08900
C910        C  0.70067897  0.83189143  0.00649096     0.05900
C911        C  0.69948799  0.86567359  0.00638803    -0.10200
C912        C  0.66450291  0.86341853  0.00628257     0.03400
C913        C  0.63069213  0.82735863  0.00631003    -0.08700
C914        C  0.63182563  0.79353187  0.00641960     0.05900
C915        C  0.66683938  0.79577878  0.00651854    -0.08200
H916        H  0.72568980  0.89360991  0.00633598     0.11500
H917        H  0.60358556  0.82562403  0.00619736     0.09000
H918        H  0.66775317  0.76961531  0.00656297     0.09200
C919        C  0.80444151  0.84093375  0.00624892     0.89300
C920        C  0.82884662  0.86255581  0.03994335    -0.50900
C921        C  0.86351721  0.86602345  0.03973678     0.12200
C922        C  0.87052214  0.84737008  0.00613720     0.23200
C923        C  0.82896700  0.86288932  0.30596908    -0.51700
C924        C  0.86364037  0.86634887  0.30606033     0.12300
C925        C  0.80199143  0.80208746  0.00607925    -0.51200
C926        C  0.83658083  0.80544798  0.00601297     0.12900
H927        H  0.81995252  0.87483543  0.06145569     0.17400
H928        H  0.89878137  0.85020387  0.00609137     0.03100
H929        H  0.82012995  0.87534101  0.28457927     0.17700
H930        H  0.77535813  0.77443752  0.00599242     0.17500
C931        C  0.95985025  0.65759089  0.00551937     0.89300
C932        C  0.96240051  0.63615886  0.30513839    -0.50900
C933        C  0.49377324  0.63313893  0.30542173     0.12200
C934        C  0.51974336  0.65190708  0.00572343     0.23200
C935        C  0.96197077  0.63578398  0.03916688    -0.51700
C936        C  0.99335490  0.63277693  0.03909421     0.12300
C937        C  0.99722935  0.69666294  0.00574196    -0.51200
C938        C  0.52854765  0.69360610  0.00585345     0.12900
H939        H  0.94104254  0.62384279  0.28349545     0.17400
H940        H  0.54529363  0.64942379  0.00581198     0.03100
H941        H  0.94036382  0.62326808  0.06062858     0.17700
H942        H  0.49881350  0.72418818  0.00582068     0.17500
C943        C  0.65965264  0.96176583  0.00569432     0.89300
C944        C  0.63858645  0.96460342  0.03930242    -0.50900
C945        C  0.63623394  0.99681849  0.03906083     0.12200
C946        C  0.65532308  0.52334517  0.00552356     0.23200
C947        C  0.63871521  0.96457183  0.30531310    -0.51700
C948        C  0.63637155  0.99680138  0.30537831     0.12300
C949        C  0.69847613  0.99931388  0.00566813    -0.51200
C950        C  0.69617603  0.53155215  0.00556976     0.12900
H951        H  0.62591344  0.94273819  0.06081282     0.17400
H952        H  0.65337998  0.54958776  0.00545480     0.03100
H953        H  0.62612404  0.94268532  0.28387018     0.17700
H954        H  0.72529825  0.50034358  0.00569798     0.17500
Fe955      Fe  0.95577381  0.00030188  0.17259402     1.65800
Fe956      Fe  0.50524236  0.95393293  0.17254465     1.73200
Fe957      Fe  0.55339530  0.55315664  0.17221087     1.54400
O958        O  0.53559911  0.57598668  0.13149980    -0.78900
O959        O  0.54575342  0.97278598  0.21355479    -0.77200
O960        O  0.97224818  0.54100403  0.13133745    -0.81400
O961        O  0.97272576  0.54183611  0.21304294    -0.76200
O962        O  0.57708413  0.53719291  0.13086686    -0.78000
O963        O  0.96433572  0.92845541  0.21344799    -0.80800
C964        C  0.50421099  0.56871764  0.22548020     1.00000
C965        C  0.00367055  0.56833233  0.11918116     1.07500
O966        O  0.00482731  0.00248247  0.17244927    -1.09700
O967        O  0.96476799  0.92867948  0.13141629    -0.72200
O968        O  0.93226573  0.95848272  0.13211061    -0.75700
O969        O  0.53609414  0.57581797  0.21351430    -0.76300
C970        C  0.93853139  0.93325172  0.11955891     0.98900
O971        O  0.93284768  0.95931230  0.21391758    -0.74300
O972        O  0.54618453  0.97287930  0.13178240    -0.79500
C973        C  0.57175928  0.00531880  0.22543250     1.01500
C974        C  0.57158042  0.50533437  0.11905495     1.07500
O975        O  0.57773490  0.53714215  0.21289089    -0.75100
C976        C  0.93866190  0.93360173  0.22597870     1.05800
C977        C  0.59562948  0.50575299  0.09015436    -0.10500
C978        C  0.61501752  0.00335027  0.06665347    -0.12000
C979        C  0.61527673  0.00336209  0.27768872    -0.10500
C980        C  0.59593373  0.00582899  0.25420846    -0.12000
C981        C  0.50341993  0.59260134  0.25421700    -0.10500
C982        C  0.50030499  0.61184793  0.27765324    -0.12000
C983        C  0.00275829  0.59211074  0.09037861    -0.10500
C984        C  0.99966276  0.61134924  0.06690264    -0.12000
C985        C  0.89203036  0.88856568  0.27844640    -0.10500
C986        C  0.91435903  0.90873266  0.25491249    -0.12000
C987        C  0.91415350  0.90830823  0.09079807    -0.10500
C988        C  0.89184787  0.88812940  0.06733374    -0.12000
C989        C  0.56638996  0.72706076  0.00611240    -0.10500
C990        C  0.59688482  0.75667471  0.00629700    -0.12000
C991        C  0.66326367  0.89809513  0.00604293    -0.10500
C992        C  0.66189717  0.92696859  0.00583629    -0.12000
C993        C  0.73671691  0.83445461  0.00643594    -0.10500
C994        C  0.76723281  0.83728763  0.00633664    -0.12000
C995        C  0.72966938  0.56969609  0.00543756    -0.10500
C996        C  0.75940474  0.60018963  0.00531235    -0.12000
C997        C  0.84001183  0.77196513  0.00576749    -0.10500
C998        C  0.83944109  0.74201970  0.00554693    -0.12000
C999        C  0.89837840  0.66347445  0.00524769    -0.10500
C1000       C  0.92611349  0.66083021  0.00538213    -0.12000
C1001       C  0.83600018  0.70491396  0.33866095     0.05900
C1002       C  0.86856007  0.70239763  0.67190900    -0.10200
C1003       C  0.86502741  0.66620403  0.67182425     0.03400
C1004       C  0.82894312  0.63256312  0.67178815    -0.08700
C1005       C  0.79634633  0.63499649  0.33854246     0.05900
C1006       C  0.79988468  0.67117888  0.33864000    -0.08200
H1007       H  0.89649157  0.72845966  0.67196289     0.11500
H1008       H  0.82623487  0.60456070  0.67174929     0.09000
H1009       H  0.77466059  0.67308340  0.33874157     0.08900
C1010       C  0.70067876  0.83189106  0.33982424     0.05900
C1011       C  0.69948768  0.86567324  0.33972149    -0.10200
C1012       C  0.66450248  0.86341819  0.33961586     0.03400
C1013       C  0.63069181  0.82735842  0.33964342    -0.08700
C1014       C  0.63182538  0.79353172  0.33975291     0.05900
C1015       C  0.66683920  0.79577859  0.33985193    -0.08200
H1016       H  0.72568895  0.89360915  0.33966952     0.11500
H1017       H  0.60358476  0.82562368  0.33953014     0.09000
H1018       H  0.66775279  0.76961473  0.33989575     0.09200
C1019       C  0.80444161  0.84093377  0.33958239     0.89300
C1020       C  0.82884663  0.86255583  0.37327671    -0.50900
C1021       C  0.86351723  0.86602346  0.37307025     0.12200
C1022       C  0.87052232  0.84737010  0.33947078     0.23200
C1023       C  0.82896699  0.86288926  0.63930237    -0.51700
C1024       C  0.86364033  0.86634878  0.63939349     0.12300
C1025       C  0.80199154  0.80208756  0.33941266    -0.51200
C1026       C  0.83658096  0.80544803  0.33934638     0.12900
H1027       H  0.81995232  0.87483549  0.39478910     0.17400
H1028       H  0.89878172  0.85020383  0.33942540     0.03100
H1029       H  0.82012969  0.87534059  0.61791224     0.17700
H1030       H  0.77535821  0.77443754  0.33932571     0.17500
C1031       C  0.95985013  0.65759086  0.33885268     0.89300
C1032       C  0.96240079  0.63615909  0.63847183    -0.50900
C1033       C  0.49377351  0.63313898  0.63875522     0.12200
C1034       C  0.51974332  0.65190720  0.33905670     0.23200
C1035       C  0.96197081  0.63578409  0.37250019    -0.51700
C1036       C  0.99335478  0.63277688  0.37242745     0.12300
C1037       C  0.99722934  0.69666296  0.33907517    -0.51200
C1038       C  0.52854755  0.69360617  0.33918670     0.12900
H1039       H  0.94104280  0.62384289  0.61682944     0.17400
H1040       H  0.54529339  0.64942392  0.33914536     0.03100
H1041       H  0.94036380  0.62326810  0.39396192     0.17700
H1042       H  0.49881338  0.72418820  0.33915394     0.17500
C1043       C  0.65965246  0.96176579  0.33902754     0.89300
C1044       C  0.63858644  0.96460333  0.37263577    -0.50900
C1045       C  0.63623404  0.99681846  0.37239418     0.12200
C1046       C  0.65532301  0.52334504  0.33885696     0.23200
C1047       C  0.63871536  0.96457184  0.63864667    -0.51700
C1048       C  0.63637173  0.99680146  0.63871167     0.12300
C1049       C  0.69847598  0.99931390  0.33900145    -0.51200
C1050       C  0.69617590  0.53155210  0.33890308     0.12900
H1051       H  0.62591334  0.94273807  0.39414610     0.17400
H1052       H  0.65338000  0.54958741  0.33878844     0.03100
H1053       H  0.62612457  0.94268550  0.61720399     0.17700
H1054       H  0.72529769  0.50034353  0.33903108     0.17500
Fe1055     Fe  0.95577384  0.00030189  0.50592730     1.65800
Fe1056     Fe  0.50524245  0.95393299  0.50587794     1.73200
Fe1057     Fe  0.55339528  0.55315669  0.50554420     1.54400
O1058       O  0.53559921  0.57598665  0.46483314    -0.78900
O1059       O  0.54575353  0.97278613  0.54688806    -0.77200
O1060       O  0.97224824  0.54100409  0.46467075    -0.81400
O1061       O  0.97272583  0.54183613  0.54637627    -0.76200
O1062       O  0.57708417  0.53719295  0.46420026    -0.78000
O1063       O  0.96433585  0.92845553  0.54678127    -0.80800
C1064       C  0.50421091  0.56871751  0.55881362     1.00000
C1065       C  0.00367065  0.56833240  0.45251454     1.07500
O1066       O  0.00482735  0.00248250  0.50578257    -1.09700
O1067       O  0.96476810  0.92867954  0.46474954    -0.72200
O1068       O  0.93226594  0.95848276  0.46544389    -0.75700
O1069       O  0.53609407  0.57581793  0.54684767    -0.76300
C1070       C  0.93853143  0.93325164  0.45289225     0.98900
O1071       O  0.93284769  0.95931229  0.54725089    -0.74300
O1072       O  0.54618461  0.97287945  0.46511578    -0.79500
C1073       C  0.57175946  0.00531896  0.55876576     1.01500
C1074       C  0.57158040  0.50533441  0.45238826     1.07500
O1075       O  0.57773494  0.53714220  0.54622428    -0.75100
C1076       C  0.93866192  0.93360173  0.55931194     1.05800
C1077       C  0.59562959  0.50575307  0.42348759    -0.10500
C1078       C  0.61501760  0.00335027  0.39998665    -0.12000
C1079       C  0.61527670  0.00336203  0.61102206    -0.10500
C1080       C  0.59593383  0.00582910  0.58754177    -0.12000
C1081       C  0.50341982  0.59260127  0.58755031    -0.10500
C1082       C  0.50030500  0.61184791  0.61098659    -0.12000
C1083       C  0.00275828  0.59211072  0.42371188    -0.10500
C1084       C  0.99966286  0.61134932  0.40023590    -0.12000
C1085       C  0.89203045  0.88856576  0.61177974    -0.10500
C1086       C  0.91435907  0.90873282  0.58824583    -0.12000
C1087       C  0.91415357  0.90830820  0.42413134    -0.10500
C1088       C  0.89184774  0.88812935  0.40066719    -0.12000
C1089       C  0.56638990  0.72706073  0.33944574    -0.10500
C1090       C  0.59688472  0.75667467  0.33963045    -0.12000
C1091       C  0.66326374  0.89809518  0.33937624    -0.10500
C1092       C  0.66189713  0.92696862  0.33916956    -0.12000
C1093       C  0.73671697  0.83445468  0.33976922    -0.10500
C1094       C  0.76723288  0.83728771  0.33966990    -0.12000
C1095       C  0.72966941  0.56969608  0.33877099    -0.10500
C1096       C  0.75940476  0.60018969  0.33864559    -0.12000
C1097       C  0.84001187  0.77196511  0.33910094    -0.10500
C1098       C  0.83944097  0.74201960  0.33888016    -0.12000
C1099       C  0.89837830  0.66347453  0.33858093    -0.10500
C1100       C  0.92611338  0.66083028  0.33871555    -0.12000
C1101       C  0.83600028  0.70491389  0.67199424     0.05900
C1102       C  0.86856010  0.70239772  0.00524233    -0.10200
C1103       C  0.86502749  0.66620432  0.00515762     0.03400
C1104       C  0.82894310  0.63256339  0.00512151    -0.08700
C1105       C  0.79634650  0.63499626  0.67187563     0.05900
C1106       C  0.79988485  0.67117880  0.67197338    -0.08200
H1107       H  0.89649196  0.72845992  0.00529618     0.11500
H1108       H  0.82623505  0.60456151  0.00508264     0.09000
H1109       H  0.77466120  0.67308331  0.67207479     0.08900
C1110       C  0.70067876  0.83189110  0.67315760     0.05900
C1111       C  0.69948777  0.86567330  0.67305468    -0.10200
C1112       C  0.66450265  0.86341831  0.67294922     0.03400
C1113       C  0.63069200  0.82735849  0.67297667    -0.08700
C1114       C  0.63182546  0.79353173  0.67308625     0.05900
C1115       C  0.66683922  0.79577859  0.67318518    -0.08200
H1116       H  0.72568935  0.89360931  0.67300263     0.11500
H1117       H  0.60358499  0.82562376  0.67286402     0.09000
H1118       H  0.66775290  0.76961478  0.67322963     0.09200
C1119       C  0.80444162  0.84093374  0.67291571     0.89300
C1120       C  0.82884667  0.86255589  0.70661005    -0.50900
C1121       C  0.86351728  0.86602346  0.70640351     0.12200
C1122       C  0.87052233  0.84737006  0.67280396     0.23200
C1123       C  0.82896676  0.86288938  0.97263556    -0.51700
C1124       C  0.86364007  0.86634890  0.97272673     0.12300
C1125       C  0.80199158  0.80208751  0.67274597    -0.51200
C1126       C  0.83658099  0.80544800  0.67267968     0.12900
H1127       H  0.81995256  0.87483559  0.72812233     0.17400
H1128       H  0.89878169  0.85020376  0.67275847     0.03100
H1129       H  0.82012930  0.87534084  0.95124545     0.17700
H1130       H  0.77535828  0.77443750  0.67265921     0.17500
C1131       C  0.95985032  0.65759096  0.67218621     0.89300
C1132       C  0.96240068  0.63615901  0.97180505    -0.50900
C1133       C  0.49377327  0.63313881  0.97208846     0.12200
C1134       C  0.51974351  0.65190714  0.67239013     0.23200
C1135       C  0.96197078  0.63578399  0.70583367    -0.51700
C1136       C  0.99335479  0.63277680  0.70576092     0.12300
C1137       C  0.99722939  0.69666303  0.67240868    -0.51200
C1138       C  0.52854772  0.69360610  0.67252014     0.12900
H1139       H  0.94104257  0.62384280  0.95016219     0.17400
H1140       H  0.54529376  0.64942376  0.67247859     0.03100
H1141       H  0.94036350  0.62326784  0.72729543     0.17700
H1142       H  0.49881358  0.72418823  0.67248744     0.17500
C1143       C  0.65965277  0.96176593  0.67236111     0.89300
C1144       C  0.63858654  0.96460349  0.70596918    -0.50900
C1145       C  0.63623405  0.99681853  0.70572755     0.12200
C1146       C  0.65532314  0.52334501  0.67219022     0.23200
C1147       C  0.63871525  0.96457180  0.97197994    -0.51700
C1148       C  0.63637163  0.99680142  0.97204503     0.12300
C1149       C  0.69847625  0.99931393  0.67233484    -0.51200
C1150       C  0.69617613  0.53155207  0.67223644     0.12900
H1151       H  0.62591350  0.94273828  0.72747957     0.17400
H1152       H  0.65338018  0.54958738  0.67212151     0.03100
H1153       H  0.62612444  0.94268541  0.95053691     0.17700
H1154       H  0.72529844  0.50034369  0.67236462     0.17500
Fe1155     Fe  0.95577381  0.00030189  0.83926070     1.65800
Fe1156     Fe  0.50524242  0.95393297  0.83921131     1.73200
Fe1157     Fe  0.55339533  0.55315671  0.83887751     1.54400
O1158       O  0.53559911  0.57598663  0.79816638    -0.78900
O1159       O  0.54575353  0.97278619  0.88022150    -0.77200
O1160       O  0.97224821  0.54100403  0.79800417    -0.81400
O1161       O  0.97272586  0.54183617  0.87970963    -0.76200
O1162       O  0.57708420  0.53719294  0.79753350    -0.78000
O1163       O  0.96433580  0.92845542  0.88011468    -0.80800
C1164       C  0.50421096  0.56871763  0.89214687     1.00000
C1165       C  0.00367054  0.56833238  0.78584785     1.07500
O1166       O  0.00482730  0.00248247  0.83911592    -1.09700
O1167       O  0.96476800  0.92867951  0.79808290    -0.72200
O1168       O  0.93226577  0.95848267  0.79877731    -0.75700
O1169       O  0.53609412  0.57581802  0.88018102    -0.76300
C1170       C  0.93853134  0.93325163  0.78622563     0.98900
O1171       O  0.93284772  0.95931240  0.88058434    -0.74300
O1172       O  0.54618464  0.97287944  0.79844906    -0.79500
C1173       C  0.57175932  0.00531903  0.89209921     1.01500
C1174       C  0.57158045  0.50533437  0.78572162     1.07500
O1175       O  0.57773494  0.53714219  0.87955747    -0.75100
C1176       C  0.93866190  0.93360174  0.89264531     1.05800
C1177       C  0.59562950  0.50575294  0.75682104    -0.10500
C1178       C  0.61501756  0.00335022  0.73332016    -0.12000
C1179       C  0.61527669  0.00336211  0.94435544    -0.10500
C1180       C  0.59593377  0.00582904  0.92087509    -0.12000
C1181       C  0.50341995  0.59260125  0.92088367    -0.10500
C1182       C  0.50030504  0.61184792  0.94431982    -0.12000
C1183       C  0.00275838  0.59211082  0.75704520    -0.10500
C1184       C  0.99966278  0.61134931  0.73356929    -0.12000
C1185       C  0.89203036  0.88856579  0.94511303    -0.10500
C1186       C  0.91435904  0.90873277  0.92157912    -0.12000
C1187       C  0.91415356  0.90830827  0.75746474    -0.10500
C1188       C  0.89184784  0.88812944  0.73400050    -0.12000
C1189       C  0.56638997  0.72706066  0.67277906    -0.10500
C1190       C  0.59688471  0.75667470  0.67296380    -0.12000
C1191       C  0.66326371  0.89809515  0.67270958    -0.10500
C1192       C  0.66189724  0.92696865  0.67250298    -0.12000
C1193       C  0.73671690  0.83445461  0.67310258    -0.10500
C1194       C  0.76723285  0.83728769  0.67300327    -0.12000
C1195       C  0.72966942  0.56969610  0.67210420    -0.10500
C1196       C  0.75940478  0.60018967  0.67197899    -0.12000
C1197       C  0.84001180  0.77196509  0.67243441    -0.10500
C1198       C  0.83944097  0.74201961  0.67221360    -0.12000
C1199       C  0.89837843  0.66347453  0.67191432    -0.10500
C1200       C  0.92611351  0.66083027  0.67204878    -0.12000
loop_ 
_geom_bond_atom_site_label_1 
_geom_bond_atom_site_label_2 
_geom_bond_distance 
_geom_bond_site_symmetry_2 
_ccdc_geom_bond_type 
C1            C6   1.403       .  A
C1          C202   1.401       .  A
C1           C98   1.440       .  S
C2            C3   1.401       .  A
C2          C101   1.401       .  A
C2            H7   1.084       .  S
C3            C4   1.401       .  A
C3          C199   1.439       .  S
C4          C105   1.401       .  A
C4            H8   1.085       .  S
C5            C6   1.401       .  A
C5          C204   1.401       .  A
C5           C96   1.440       .  S
C6            H9   1.085       .  S
C10          C11   1.400       .  A
C10          C15   1.402       .  A
C10          C93   1.437       .  S
C11          C12   1.400       .  A
C11          H16   1.085       .  S
C12          C13   1.400       .  A
C12          C91   1.438       .  S
C13          C14   1.401       .  A
C13          H17   1.085       .  S
C14          C15   1.401       .  A
C14          C90   1.438       .  S
C15          H18   1.084       .  S
C19          C20   1.533       .  S
C19          C25   1.530       .  S
C19         C223   1.533   1_554  S
C19          C94   1.465       .  S
C20          H27   1.087       .  S
C20          C21   1.364       .  D
C21          C22   1.538       .  S
C21          C88   1.441       .  S
C22          C26   1.541       .  S
C22         C224   1.537   1_554  S
C22          H28   1.112       .  S
C23         C119   1.533       .  S
C23          H29   1.087       .  S
C23          C24   1.364       .  D
C24         C122   1.537       .  S
C24          C85   1.441       .  S
C25          H30   1.087       .  S
C25          C26   1.362       .  D
C26          C97   1.441       .  S
C31          C37   1.531       .  S
C31          C35   1.534       .  S
C31         C232   1.534   1_554  S
C31         C100   1.467       .  S
C32         C131   1.534       .  S
C32          H39   1.087       .  S
C32         C633   1.364       .  D
C33         C134   1.536   1_655  S
C33         C632   1.364       .  D
C33          C82   1.440   1_655  S
C34          C38   1.538       .  S
C34         C233   1.536   1_454  S
C34         C636   1.536   1_455  S
C34          H40   1.112       .  S
C35          H41   1.087       .  S
C35          C36   1.364       .  D
C36         C634   1.536       .  S
C36          C84   1.440       .  S
C37         H642   1.087       .  S
C37         C638   1.363       .  D
C38         C637   1.363   1_455  D
C38          C89   1.439       .  S
H42         C637   1.087       .  S
C43          C44   1.533       .  S
C43          C49   1.531       .  S
C43         C247   1.533   1_554  S
C43          C92   1.466       .  S
C44          H51   1.087       .  S
C44          C45   1.364       .  D
C45         C346   1.537       .  S
C45          C78   1.441       .  S
C46          C50   1.540       .  S
C46         C345   1.537   1_545  S
C46         C548   1.537   1_544  S
C46          H52   1.112       .  S
C47         C143   1.533       .  S
C47          H53   1.087       .  S
C47          C48   1.364       .  D
C48         C446   1.537       .  S
C48          C79   1.441       .  S
C49         H354   1.087       .  S
C49         C350   1.363       .  D
C50         C349   1.363   1_545  D
C50          C95   1.441       .  S
H54         C349   1.087   1_545  S
Fe55         O71   2.062       .  S
Fe55         O68   2.063       .  S
Fe55        O361   2.061       .  S
Fe55        O360   2.060       .  S
Fe55         O66   1.982       .  S
Fe56         O59   2.061       .  S
Fe56         O72   2.063       .  S
Fe56        O663   2.068   1_455  S
Fe56        O667   2.067   1_455  S
Fe56        O666   1.984       .  S
Fe57         O75   2.070       .  S
Fe57         O62   2.068       .  S
Fe57         O69   2.068       .  S
Fe57         O58   2.069       .  S
Fe57        O966   1.987       .  S
O58         C665   1.268       .  A
O59          C73   1.267       .  A
O60        Fe355   2.060       .  S
O60          C65   1.266       .  A
O61        Fe355   2.061       .  S
O61         C664   1.266       .  A
O62          C74   1.267       .  A
O63        Fe656   2.068       .  S
O63          C76   1.267       .  A
C64          C81   1.435       .  S
C64          O69   1.267       .  A
C64         O661   1.266   1_455  A
C65          C83   1.434       .  S
C65         O658   1.268       .  A
O66        Fe656   1.984       .  S
O66        Fe957   1.987       .  S
O67        Fe656   2.067       .  S
O67          C70   1.267       .  A
O68          C70   1.267       .  A
C70          C87   1.435       .  S
O71          C76   1.266       .  A
O72         C374   1.267       .  A
C73          C80   1.435       .  S
C73         O375   1.268       .  A
C74          C77   1.435       .  S
C74         O372   1.267   1_545  A
O75         C373   1.268       .  A
C76          C86   1.435       .  S
C77         C378   1.206       .  T
C78         C377   1.206       .  T
C79          C80   1.206       .  T
C81          C82   1.205       .  T
C83          C84   1.205       .  T
C85          C86   1.206       .  T
C87          C88   1.206       .  T
C89          C90   1.205       .  T
C91          C92   1.205       .  T
C93          C94   1.204       .  T
C95          C96   1.206       .  T
C97          C98   1.206       .  T
C99         C203   1.439       .  S
C99         C100   1.206       .  T
C101        C106   1.403       .  A
C101        C198   1.440       .  S
C102        C201   1.401       .  A
C102        C103   1.401       .  A
C102        H107   1.084       .  S
C103        C104   1.401       .  A
C103        C299   1.439       .  S
C104        C205   1.401       .  A
C104        H108   1.085       .  S
C105        C106   1.401       .  A
C105        C196   1.440       .  S
C106        H109   1.085       .  S
C110        C111   1.400       .  A
C110        C115   1.402       .  A
C110        C193   1.437       .  S
C111        C112   1.400       .  A
C111        H116   1.085       .  S
C112        C113   1.400       .  A
C112        C191   1.438       .  S
C113        C114   1.401       .  A
C113        H117   1.085       .  S
C114        C115   1.401       .  A
C114        C190   1.438       .  S
C115        H118   1.084       .  S
C119        C120   1.533       .  S
C119        C125   1.530       .  S
C119        C194   1.465       .  S
C120        H127   1.087       .  S
C120        C121   1.364       .  D
C121        C122   1.538       .  S
C121        C188   1.441       .  S
C122        C126   1.541       .  S
C122        H128   1.112       .  S
C123        C219   1.533       .  S
C123        H129   1.087       .  S
C123        C124   1.364       .  D
C124        C222   1.537       .  S
C124        C185   1.441       .  S
C125        H130   1.087       .  S
C125        C126   1.362       .  D
C126        C197   1.441       .  S
C131        C137   1.531       .  S
C131        C135   1.534       .  S
C131        C200   1.467       .  S
C132        C231   1.534       .  S
C132        H139   1.087       .  S
C132        C733   1.364       .  D
C133        C234   1.536   1_655  S
C133        C732   1.364       .  D
C133        C182   1.440   1_655  S
C134        C138   1.538       .  S
C134        C736   1.536   1_455  S
C134        H140   1.112       .  S
C135        H141   1.087       .  S
C135        C136   1.364       .  D
C136        C734   1.536       .  S
C136        C184   1.440       .  S
C137        H742   1.087       .  S
C137        C738   1.363       .  D
C138        C737   1.363   1_455  D
C138        C189   1.439       .  S
H142        C737   1.087       .  S
C143        C144   1.533       .  S
C143        C149   1.531       .  S
C143        C192   1.466       .  S
C144        H151   1.087       .  S
C144        C145   1.364       .  D
C145        C446   1.537       .  S
C145        C178   1.441       .  S
C146        C445   1.537   1_545  S
C146        C150   1.540       .  S
C146        C348   1.537   1_545  S
C146        H152   1.112       .  S
C147        C243   1.533       .  S
C147        H153   1.087       .  S
C147        C148   1.364       .  D
C148        C546   1.537       .  S
C148        C179   1.441       .  S
C149        H454   1.087       .  S
C149        C450   1.363       .  D
C150        C449   1.363   1_545  D
C150        C195   1.441       .  S
H154        C449   1.087   1_545  S
Fe155       O171   2.062       .  S
Fe155       O461   2.061       .  S
Fe155       O168   2.063       .  S
Fe155       O460   2.060       .  S
Fe155       O166   1.982       .  S
Fe156       O159   2.061       .  S
Fe156       O763   2.068   1_455  S
Fe156       O767   2.067   1_455  S
Fe156       O172   2.063       .  S
Fe156       O766   1.984       .  S
Fe157       O175   2.070       .  S
Fe157       O162   2.068       .  S
Fe157       O169   2.068       .  S
Fe157       O158   2.069       .  S
Fe157      O1066   1.987       .  S
O158        C765   1.268       .  A
O159        C173   1.267       .  A
O160       Fe455   2.060       .  S
O160        C165   1.266       .  A
O161       Fe455   2.061       .  S
O161        C764   1.266       .  A
O162        C174   1.267       .  A
O163       Fe756   2.068       .  S
O163        C176   1.267       .  A
C164        C181   1.435       .  S
C164        O761   1.266   1_455  A
C164        O169   1.267       .  A
C165        C183   1.434       .  S
C165        O758   1.268       .  A
O166       Fe756   1.984       .  S
O166      Fe1057   1.987       .  S
O167       Fe756   2.067       .  S
O167        C170   1.267       .  A
O168        C170   1.267       .  A
C170        C187   1.435       .  S
O171        C176   1.266       .  A
O172        C474   1.267       .  A
C173        C180   1.435       .  S
C173        O475   1.268       .  A
C174        C177   1.435       .  S
C174        O472   1.267   1_545  A
O175        C473   1.268       .  A
C176        C186   1.435       .  S
C177        C478   1.206       .  T
C178        C477   1.206       .  T
C179        C180   1.206       .  T
C181        C182   1.205       .  T
C183        C184   1.205       .  T
C185        C186   1.206       .  T
C187        C188   1.206       .  T
C189        C190   1.205       .  T
C191        C192   1.205       .  T
C193        C194   1.204       .  T
C195        C196   1.206       .  T
C197        C198   1.206       .  T
C199        C200   1.206       .  T
C201        C206   1.403       .  A
C201        C298   1.440       .  S
C202        C203   1.401       .  A
C202        H207   1.084       .  S
C203        C204   1.401       .  A
C204        H208   1.085       .  S
C205        C206   1.401       .  A
C205        C296   1.440       .  S
C206        H209   1.085       .  S
C210        C211   1.400       .  A
C210        C215   1.402       .  A
C210        C293   1.437       .  S
C211        C212   1.400       .  A
C211        H216   1.085       .  S
C212        C213   1.400       .  A
C212        C291   1.438       .  S
C213        C214   1.401       .  A
C213        H217   1.085       .  S
C214        C215   1.401       .  A
C214        C290   1.438       .  S
C215        H218   1.084       .  S
C219        C220   1.533       .  S
C219        C225   1.530       .  S
C219        C294   1.465       .  S
C220        H227   1.087       .  S
C220        C221   1.364       .  D
C221        C222   1.538       .  S
C221        C288   1.441       .  S
C222        C226   1.541       .  S
C222        H228   1.112       .  S
C223        H229   1.087       .  S
C223        C224   1.364       .  D
C224        C285   1.441       .  S
C225        H230   1.087       .  S
C225        C226   1.362       .  D
C226        C297   1.441       .  S
C231        C237   1.531       .  S
C231        C235   1.534       .  S
C231        C300   1.467       .  S
C232        H239   1.087       .  S
C232        C833   1.364       .  D
C233        C832   1.364       .  D
C233        C282   1.440   1_655  S
C234        C238   1.538       .  S
C234        C836   1.536   1_455  S
C234        H240   1.112       .  S
C235        H241   1.087       .  S
C235        C236   1.364       .  D
C236        C834   1.536       .  S
C236        C284   1.440       .  S
C237        H842   1.087       .  S
C237        C838   1.363       .  D
C238        C837   1.363   1_455  D
C238        C289   1.439       .  S
H242        C837   1.087       .  S
C243        C244   1.533       .  S
C243        C249   1.531       .  S
C243        C292   1.466       .  S
C244        H251   1.087       .  S
C244        C245   1.364       .  D
C245        C546   1.537       .  S
C245        C278   1.441       .  S
C246        C545   1.537   1_545  S
C246        C250   1.540       .  S
C246        C448   1.537   1_545  S
C246        H252   1.112       .  S
C247        H253   1.087       .  S
C247        C248   1.364       .  D
C248        C346   1.537   1_556  S
C248        C279   1.441       .  S
C249        H554   1.087       .  S
C249        C550   1.363       .  D
C250        C549   1.363   1_545  D
C250        C295   1.441       .  S
H254        C549   1.087   1_545  S
Fe255       O271   2.062       .  S
Fe255       O561   2.061       .  S
Fe255       O268   2.063       .  S
Fe255       O560   2.060       .  S
Fe255       O266   1.982       .  S
Fe256       O259   2.061       .  S
Fe256       O863   2.068   1_455  S
Fe256       O867   2.067   1_455  S
Fe256       O272   2.063       .  S
Fe256       O866   1.984       .  S
Fe257       O275   2.070       .  S
Fe257       O262   2.068       .  S
Fe257       O269   2.068       .  S
Fe257       O258   2.069       .  S
Fe257      O1166   1.987       .  S
O258        C865   1.268       .  A
O259        C273   1.267       .  A
O260       Fe555   2.060       .  S
O260        C265   1.266       .  A
O261       Fe555   2.061       .  S
O261        C864   1.266       .  A
O262        C274   1.267       .  A
O263       Fe856   2.068       .  S
O263        C276   1.267       .  A
C264        C281   1.435       .  S
C264        O861   1.266   1_455  A
C264        O269   1.267       .  A
C265        C283   1.434       .  S
C265        O858   1.268       .  A
O266       Fe856   1.984       .  S
O266      Fe1157   1.987       .  S
O267       Fe856   2.067       .  S
O267        C270   1.267       .  A
O268        C270   1.267       .  A
C270        C287   1.435       .  S
O271        C276   1.266       .  A
O272        C574   1.267       .  A
C273        C280   1.435       .  S
C273        O575   1.268       .  A
C274        C277   1.435       .  S
C274        O572   1.267   1_545  A
O275        C573   1.268       .  A
C276        C286   1.435       .  S
C277        C578   1.206       .  T
C278        C577   1.206       .  T
C279        C280   1.206       .  T
C281        C282   1.205       .  T
C283        C284   1.205       .  T
C285        C286   1.206       .  T
C287        C288   1.206       .  T
C289        C290   1.205       .  T
C291        C292   1.205       .  T
C293        C294   1.204       .  T
C295        C296   1.206       .  T
C297        C298   1.206       .  T
C299        C300   1.206       .  T
C301        C502   1.401       .  A
C301        C306   1.403       .  A
C301        C398   1.440       .  S
C302        C401   1.401       .  A
C302        C303   1.401       .  A
C302        H307   1.084       .  S
C303        C304   1.401       .  A
C303        C499   1.439       .  S
C304        C405   1.401       .  A
C304        H308   1.085       .  S
C305        C504   1.401       .  A
C305        C306   1.401       .  A
C305        C396   1.440       .  S
C306        H309   1.085       .  S
C310        C311   1.400       .  A
C310        C315   1.402       .  A
C310        C393   1.437       .  S
C311        C312   1.400       .  A
C311        H316   1.085       .  S
C312        C313   1.400       .  A
C312        C391   1.438       .  S
C313        C314   1.401       .  A
C313        H317   1.085       .  S
C314        C315   1.401       .  A
C314        C390   1.438       .  S
C315        H318   1.084       .  S
C319        C320   1.533       .  S
C319        C325   1.530       .  S
C319        C523   1.533   1_554  S
C319        C394   1.465       .  S
C320        H327   1.087       .  S
C320        C321   1.364       .  D
C321        C322   1.538       .  S
C321        C388   1.441       .  S
C322        C326   1.541       .  S
C322        C524   1.537   1_554  S
C322        H328   1.112       .  S
C323        C419   1.533       .  S
C323        H329   1.087       .  S
C323        C324   1.364       .  D
C324        C422   1.537       .  S
C324        C385   1.441       .  S
C325        H330   1.087       .  S
C325        C326   1.362       .  D
C326        C397   1.441       .  S
C331        C532   1.534   1_554  S
C331        C337   1.531       .  S
C331        C335   1.534       .  S
C331        C400   1.467       .  S
C332        C431   1.534       .  S
C332        H339   1.087       .  S
C332        C933   1.364       .  D
C333        C434   1.536   1_655  S
C333        C932   1.364       .  D
C333        C382   1.440   1_655  S
C334        C533   1.536   1_454  S
C334        C338   1.538       .  S
C334        C936   1.536   1_455  S
C334        H340   1.112       .  S
C335        H341   1.087       .  S
C335        C336   1.364       .  D
C336        C934   1.536       .  S
C336        C384   1.440       .  S
C337        H942   1.087       .  S
C337        C938   1.363       .  D
C338        C937   1.363   1_455  D
C338        C389   1.439       .  S
H342        C937   1.087       .  S
C343        C344   1.533       .  S
C343        C349   1.531       .  S
C343        C547   1.533   1_554  S
C343        C392   1.466       .  S
C344        H351   1.087       .  S
C344        C345   1.364       .  D
C345        C378   1.441   1_565  S
C346        C350   1.540       .  S
C346        H352   1.112       .  S
C347        C443   1.533       .  S
C347        H353   1.087       .  S
C347        C348   1.364       .  D
C348        C379   1.441   1_565  S
C350        C395   1.441       .  S
Fe355       O371   2.062   1_545  S
Fe355       O368   2.063   1_545  S
Fe355       O366   1.982       .  S
Fe356       O359   2.061       .  S
Fe356       O963   2.068   1_455  S
Fe356       O967   2.067   1_455  S
Fe356       O372   2.063       .  S
Fe356       O966   1.984   1_565  S
Fe357       O375   2.070       .  S
Fe357       O362   2.068       .  S
Fe357       O369   2.068       .  S
Fe357       O358   2.069       .  S
Fe357       O666   1.987       .  S
O358        C965   1.268       .  A
O359        C373   1.267   1_565  A
O360        C365   1.266       .  A
O361        C964   1.266       .  A
O362        C374   1.267       .  A
O363       Fe956   2.068       .  S
O363        C376   1.267       .  A
C364        C381   1.435       .  S
C364        O961   1.266   1_455  A
C364        O369   1.267       .  A
C365        C383   1.434       .  S
C365        O958   1.268       .  A
O366       Fe956   1.984   1_545  S
O366       Fe657   1.987       .  S
O367       Fe956   2.067       .  S
O367        C370   1.267       .  A
O368        C370   1.267       .  A
C370        C387   1.435       .  S
O371        C376   1.266       .  A
C373        C380   1.435       .  S
C374        C377   1.435       .  S
C376        C386   1.435       .  S
C379        C380   1.206       .  T
C381        C382   1.205       .  T
C383        C384   1.205       .  T
C385        C386   1.206       .  T
C387        C388   1.206       .  T
C389        C390   1.205       .  T
C391        C392   1.205       .  T
C393        C394   1.204       .  T
C395        C396   1.206       .  T
C397        C398   1.206       .  T
C399        C503   1.439       .  S
C399        C400   1.206       .  T
C401        C406   1.403       .  A
C401        C498   1.440       .  S
C402        C501   1.401       .  A
C402        C403   1.401       .  A
C402        H407   1.084       .  S
C403        C404   1.401       .  A
C403        C599   1.439       .  S
C404        C505   1.401       .  A
C404        H408   1.085       .  S
C405        C406   1.401       .  A
C405        C496   1.440       .  S
C406        H409   1.085       .  S
C410        C411   1.400       .  A
C410        C415   1.402       .  A
C410        C493   1.437       .  S
C411        C412   1.400       .  A
C411        H416   1.085       .  S
C412        C413   1.400       .  A
C412        C491   1.438       .  S
C413        C414   1.401       .  A
C413        H417   1.085       .  S
C414        C415   1.401       .  A
C414        C490   1.438       .  S
C415        H418   1.084       .  S
C419        C420   1.533       .  S
C419        C425   1.530       .  S
C419        C494   1.465       .  S
C420        H427   1.087       .  S
C420        C421   1.364       .  D
C421        C422   1.538       .  S
C421        C488   1.441       .  S
C422        C426   1.541       .  S
C422        H428   1.112       .  S
C423        C519   1.533       .  S
C423        H429   1.087       .  S
C423        C424   1.364       .  D
C424        C522   1.537       .  S
C424        C485   1.441       .  S
C425        H430   1.087       .  S
C425        C426   1.362       .  D
C426        C497   1.441       .  S
C431        C437   1.531       .  S
C431        C435   1.534       .  S
C431        C500   1.467       .  S
C432        C531   1.534       .  S
C432        H439   1.087       .  S
C432       C1033   1.364       .  D
C433        C534   1.536   1_655  S
C433       C1032   1.364       .  D
C433        C482   1.440   1_655  S
C434        C438   1.538       .  S
C434       C1036   1.536   1_455  S
C434        H440   1.112       .  S
C435        H441   1.087       .  S
C435        C436   1.364       .  D
C436       C1034   1.536       .  S
C436        C484   1.440       .  S
C437       H1042   1.087       .  S
C437       C1038   1.363       .  D
C438       C1037   1.363   1_455  D
C438        C489   1.439       .  S
H442       C1037   1.087       .  S
C443        C444   1.533       .  S
C443        C449   1.531       .  S
C443        C492   1.466       .  S
C444        H451   1.087       .  S
C444        C445   1.364       .  D
C445        C478   1.441   1_565  S
C446        C450   1.540       .  S
C446        H452   1.112       .  S
C447        C543   1.533       .  S
C447        H453   1.087       .  S
C447        C448   1.364       .  D
C448        C479   1.441   1_565  S
C450        C495   1.441       .  S
Fe455       O471   2.062   1_545  S
Fe455       O468   2.063   1_545  S
Fe455       O466   1.982       .  S
Fe456       O459   2.061       .  S
Fe456      O1063   2.068   1_455  S
Fe456      O1067   2.067   1_455  S
Fe456       O472   2.063       .  S
Fe456      O1066   1.984   1_565  S
Fe457       O475   2.070       .  S
Fe457       O462   2.068       .  S
Fe457       O469   2.068       .  S
Fe457       O458   2.069       .  S
Fe457       O766   1.987       .  S
O458       C1065   1.268       .  A
O459        C473   1.267   1_565  A
O460        C465   1.266       .  A
O461       C1064   1.266       .  A
O462        C474   1.267       .  A
O463      Fe1056   2.068       .  S
O463        C476   1.267       .  A
C464        C481   1.435       .  S
C464       O1061   1.266   1_455  A
C464        O469   1.267       .  A
C465        C483   1.434       .  S
C465       O1058   1.268       .  A
O466      Fe1056   1.984   1_545  S
O466       Fe757   1.987       .  S
O467      Fe1056   2.067       .  S
O467        C470   1.267       .  A
O468        C470   1.267       .  A
C470        C487   1.435       .  S
O471        C476   1.266       .  A
C473        C480   1.435       .  S
C474        C477   1.435       .  S
C476        C486   1.435       .  S
C479        C480   1.206       .  T
C481        C482   1.205       .  T
C483        C484   1.205       .  T
C485        C486   1.206       .  T
C487        C488   1.206       .  T
C489        C490   1.205       .  T
C491        C492   1.205       .  T
C493        C494   1.204       .  T
C495        C496   1.206       .  T
C497        C498   1.206       .  T
C499        C500   1.206       .  T
C501        C506   1.403       .  A
C501        C598   1.440       .  S
C502        C503   1.401       .  A
C502        H507   1.084       .  S
C503        C504   1.401       .  A
C504        H508   1.085       .  S
C505        C506   1.401       .  A
C505        C596   1.440       .  S
C506        H509   1.085       .  S
C510        C511   1.400       .  A
C510        C515   1.402       .  A
C510        C593   1.437       .  S
C511        C512   1.400       .  A
C511        H516   1.085       .  S
C512        C513   1.400       .  A
C512        C591   1.438       .  S
C513        C514   1.401       .  A
C513        H517   1.085       .  S
C514        C515   1.401       .  A
C514        C590   1.438       .  S
C515        H518   1.084       .  S
C519        C520   1.533       .  S
C519        C525   1.530       .  S
C519        C594   1.465       .  S
C520        H527   1.087       .  S
C520        C521   1.364       .  D
C521        C522   1.538       .  S
C521        C588   1.441       .  S
C522        C526   1.541       .  S
C522        H528   1.112       .  S
C523        H529   1.087       .  S
C523        C524   1.364       .  D
C524        C585   1.441       .  S
C525        H530   1.087       .  S
C525        C526   1.362       .  D
C526        C597   1.441       .  S
C531        C537   1.531       .  S
C531        C535   1.534       .  S
C531        C600   1.467       .  S
C532        H539   1.087       .  S
C532       C1133   1.364       .  D
C533       C1132   1.364       .  D
C533        C582   1.440   1_655  S
C534        C538   1.538       .  S
C534       C1136   1.536   1_455  S
C534        H540   1.112       .  S
C535        H541   1.087       .  S
C535        C536   1.364       .  D
C536       C1134   1.536       .  S
C536        C584   1.440       .  S
C537       H1142   1.087       .  S
C537       C1138   1.363       .  D
C538       C1137   1.363   1_455  D
C538        C589   1.439       .  S
H542       C1137   1.087       .  S
C543        C544   1.533       .  S
C543        C549   1.531       .  S
C543        C592   1.466       .  S
C544        H551   1.087       .  S
C544        C545   1.364       .  D
C545        C578   1.441   1_565  S
C546        C550   1.540       .  S
C546        H552   1.112       .  S
C547        H553   1.087       .  S
C547        C548   1.364       .  D
C548        C579   1.441   1_565  S
C550        C595   1.441       .  S
Fe555       O571   2.062   1_545  S
Fe555       O568   2.063   1_545  S
Fe555       O566   1.982       .  S
Fe556       O559   2.061       .  S
Fe556      O1163   2.068   1_455  S
Fe556      O1167   2.067   1_455  S
Fe556       O572   2.063       .  S
Fe556      O1166   1.984   1_565  S
Fe557       O575   2.070       .  S
Fe557       O562   2.068       .  S
Fe557       O569   2.068       .  S
Fe557       O558   2.069       .  S
Fe557       O866   1.987       .  S
O558       C1165   1.268       .  A
O559        C573   1.267   1_565  A
O560        C565   1.266       .  A
O561       C1164   1.266       .  A
O562        C574   1.267       .  A
O563      Fe1156   2.068       .  S
O563        C576   1.267       .  A
C564        C581   1.435       .  S
C564       O1161   1.266   1_455  A
C564        O569   1.267       .  A
C565        C583   1.434       .  S
C565       O1158   1.268       .  A
O566      Fe1156   1.984   1_545  S
O566       Fe857   1.987       .  S
O567      Fe1156   2.067       .  S
O567        C570   1.267       .  A
O568        C570   1.267       .  A
C570        C587   1.435       .  S
O571        C576   1.266       .  A
C573        C580   1.435       .  S
C574        C577   1.435       .  S
C576        C586   1.435       .  S
C579        C580   1.206       .  T
C581        C582   1.205       .  T
C583        C584   1.205       .  T
C585        C586   1.206       .  T
C587        C588   1.206       .  T
C589        C590   1.205       .  T
C591        C592   1.205       .  T
C593        C594   1.204       .  T
C595        C596   1.206       .  T
C597        C598   1.206       .  T
C599        C600   1.206       .  T
C601        C802   1.401       .  A
C601        C606   1.403       .  A
C601        C698   1.440       .  S
C602        C701   1.401       .  A
C602        C603   1.401       .  A
C602        H607   1.084       .  S
C603        C604   1.401       .  A
C603        C799   1.439       .  S
C604        C705   1.401       .  A
C604        H608   1.085       .  S
C605        C804   1.401       .  A
C605        C606   1.401       .  A
C605        C696   1.440       .  S
C606        H609   1.085       .  S
C610        C611   1.400       .  A
C610        C615   1.402       .  A
C610        C693   1.437       .  S
C611        C612   1.400       .  A
C611        H616   1.085       .  S
C612        C613   1.400       .  A
C612        C691   1.438       .  S
C613        C614   1.401       .  A
C613        H617   1.085       .  S
C614        C615   1.401       .  A
C614        C690   1.438       .  S
C615        H618   1.084       .  S
C619        C620   1.533       .  S
C619        C625   1.530       .  S
C619        C823   1.533   1_554  S
C619        C694   1.465       .  S
C620        H627   1.087       .  S
C620        C621   1.364       .  D
C621        C622   1.538       .  S
C621        C688   1.441       .  S
C622        C626   1.541       .  S
C622        C824   1.537   1_554  S
C622        H628   1.112       .  S
C623        C719   1.533       .  S
C623        H629   1.087       .  S
C623        C624   1.364       .  D
C624        C722   1.537       .  S
C624        C685   1.441       .  S
C625        H630   1.087       .  S
C625        C626   1.362       .  D
C626        C697   1.441       .  S
C631        C832   1.534   1_554  S
C631        C637   1.531       .  S
C631        C635   1.534       .  S
C631        C700   1.467       .  S
C632        C731   1.534       .  S
C632        H639   1.087       .  S
C633        C734   1.536       .  S
C633        C682   1.440       .  S
C634        C833   1.536   1_554  S
C634        C638   1.538       .  S
C634        H640   1.112       .  S
C635        H641   1.087       .  S
C635        C636   1.364       .  D
C636        C684   1.440       .  S
C638        C689   1.439       .  S
C643        C644   1.533       .  S
C643        C649   1.531       .  S
C643        C847   1.533   1_554  S
C643        C692   1.466       .  S
C644        H651   1.087       .  S
C644        C645   1.364       .  D
C645        C946   1.537       .  S
C645        C678   1.441       .  S
C646        C945   1.537   1_545  S
C646        C650   1.540       .  S
C646       C1148   1.537   1_544  S
C646        H652   1.112       .  S
C647        C743   1.533       .  S
C647        H653   1.087       .  S
C647        C648   1.364       .  D
C648       C1046   1.537       .  S
C648        C679   1.441       .  S
C649        H954   1.087       .  S
C649        C950   1.363       .  D
C650        C949   1.363   1_545  D
C650        C695   1.441       .  S
H654        C949   1.087   1_545  S
Fe655       O671   2.062       .  S
Fe655       O961   2.061       .  S
Fe655       O668   2.063       .  S
Fe655       O960   2.060       .  S
Fe655       O666   1.982   1_655  S
Fe656       O659   2.061       .  S
Fe656       O672   2.063       .  S
Fe657       O675   2.070       .  S
Fe657       O662   2.068       .  S
Fe657       O669   2.068       .  S
Fe657       O658   2.069       .  S
O659        C673   1.267       .  A
O660       Fe955   2.060       .  S
O660        C665   1.266   1_655  A
O661       Fe955   2.061       .  S
O662        C674   1.267       .  A
O663        C676   1.267       .  A
C664        C681   1.435       .  S
C664        O669   1.267       .  A
C665        C683   1.434       .  S
O667        C670   1.267       .  A
O668        C670   1.267       .  A
C670        C687   1.435       .  S
O671        C676   1.266       .  A
O672        C974   1.267       .  A
C673        C680   1.435       .  S
C673        O975   1.268       .  A
C674        C677   1.435       .  S
C674        O972   1.267   1_545  A
O675        C973   1.268       .  A
C676        C686   1.435       .  S
C677        C978   1.206       .  T
C678        C977   1.206       .  T
C679        C680   1.206       .  T
C681        C682   1.205       .  T
C683        C684   1.205   1_455  T
C685        C686   1.206       .  T
C687        C688   1.206       .  T
C689        C690   1.205       .  T
C691        C692   1.205       .  T
C693        C694   1.204       .  T
C695        C696   1.206       .  T
C697        C698   1.206       .  T
C699        C803   1.439       .  S
C699        C700   1.206       .  T
C701        C706   1.403       .  A
C701        C798   1.440       .  S
C702        C801   1.401       .  A
C702        C703   1.401       .  A
C702        H707   1.084       .  S
C703        C704   1.401       .  A
C703        C899   1.439       .  S
C704        C805   1.401       .  A
C704        H708   1.085       .  S
C705        C706   1.401       .  A
C705        C796   1.440       .  S
C706        H709   1.085       .  S
C710        C711   1.400       .  A
C710        C715   1.402       .  A
C710        C793   1.437       .  S
C711        C712   1.400       .  A
C711        H716   1.085       .  S
C712        C713   1.400       .  A
C712        C791   1.438       .  S
C713        C714   1.401       .  A
C713        H717   1.085       .  S
C714        C715   1.401       .  A
C714        C790   1.438       .  S
C715        H718   1.084       .  S
C719        C720   1.533       .  S
C719        C725   1.530       .  S
C719        C794   1.465       .  S
C720        H727   1.087       .  S
C720        C721   1.364       .  D
C721        C722   1.538       .  S
C721        C788   1.441       .  S
C722        C726   1.541       .  S
C722        H728   1.112       .  S
C723        C819   1.533       .  S
C723        H729   1.087       .  S
C723        C724   1.364       .  D
C724        C822   1.537       .  S
C724        C785   1.441       .  S
C725        H730   1.087       .  S
C725        C726   1.362       .  D
C726        C797   1.441       .  S
C731        C737   1.531       .  S
C731        C735   1.534       .  S
C731        C800   1.467       .  S
C732        C831   1.534       .  S
C732        H739   1.087       .  S
C733        C834   1.536       .  S
C733        C782   1.440       .  S
C734        C738   1.538       .  S
C734        H740   1.112       .  S
C735        H741   1.087       .  S
C735        C736   1.364       .  D
C736        C784   1.440       .  S
C738        C789   1.439       .  S
C743        C744   1.533       .  S
C743        C749   1.531       .  S
C743        C792   1.466       .  S
C744        H751   1.087       .  S
C744        C745   1.364       .  D
C745       C1046   1.537       .  S
C745        C778   1.441       .  S
C746       C1045   1.537   1_545  S
C746        C750   1.540       .  S
C746        C948   1.537   1_545  S
C746        H752   1.112       .  S
C747        C843   1.533       .  S
C747        H753   1.087       .  S
C747        C748   1.364       .  D
C748       C1146   1.537       .  S
C748        C779   1.441       .  S
C749       H1054   1.087       .  S
C749       C1050   1.363       .  D
C750       C1049   1.363   1_545  D
C750        C795   1.441       .  S
H754       C1049   1.087   1_545  S
Fe755       O771   2.062       .  S
Fe755      O1061   2.061       .  S
Fe755       O768   2.063       .  S
Fe755      O1060   2.060       .  S
Fe755       O766   1.982   1_655  S
Fe756       O759   2.061       .  S
Fe756       O772   2.063       .  S
Fe757       O775   2.070       .  S
Fe757       O762   2.068       .  S
Fe757       O769   2.068       .  S
Fe757       O758   2.069       .  S
O759        C773   1.267       .  A
O760      Fe1055   2.060       .  S
O760        C765   1.266   1_655  A
O761      Fe1055   2.061       .  S
O762        C774   1.267       .  A
O763        C776   1.267       .  A
C764        C781   1.435       .  S
C764        O769   1.267       .  A
C765        C783   1.434       .  S
O767        C770   1.267       .  A
O768        C770   1.267       .  A
C770        C787   1.435       .  S
O771        C776   1.266       .  A
O772       C1074   1.267       .  A
C773        C780   1.435       .  S
C773       O1075   1.268       .  A
C774        C777   1.435       .  S
C774       O1072   1.267   1_545  A
O775       C1073   1.268       .  A
C776        C786   1.435       .  S
C777       C1078   1.206       .  T
C778       C1077   1.206       .  T
C779        C780   1.206       .  T
C781        C782   1.205       .  T
C783        C784   1.205   1_455  T
C785        C786   1.206       .  T
C787        C788   1.206       .  T
C789        C790   1.205       .  T
C791        C792   1.205       .  T
C793        C794   1.204       .  T
C795        C796   1.206       .  T
C797        C798   1.206       .  T
C799        C800   1.206       .  T
C801        C806   1.403       .  A
C801        C898   1.440       .  S
C802        C803   1.401       .  A
C802        H807   1.084       .  S
C803        C804   1.401       .  A
C804        H808   1.085       .  S
C805        C806   1.401       .  A
C805        C896   1.440       .  S
C806        H809   1.085       .  S
C810        C811   1.400       .  A
C810        C815   1.402       .  A
C810        C893   1.437       .  S
C811        C812   1.400       .  A
C811        H816   1.085       .  S
C812        C813   1.400       .  A
C812        C891   1.438       .  S
C813        C814   1.401       .  A
C813        H817   1.085       .  S
C814        C815   1.401       .  A
C814        C890   1.438       .  S
C815        H818   1.084       .  S
C819        C820   1.533       .  S
C819        C825   1.530       .  S
C819        C894   1.465       .  S
C820        H827   1.087       .  S
C820        C821   1.364       .  D
C821        C822   1.538       .  S
C821        C888   1.441       .  S
C822        C826   1.541       .  S
C822        H828   1.112       .  S
C823        H829   1.087       .  S
C823        C824   1.364       .  D
C824        C885   1.441       .  S
C825        H830   1.087       .  S
C825        C826   1.362       .  D
C826        C897   1.441       .  S
C831        C837   1.531       .  S
C831        C835   1.534       .  S
C831        C900   1.467       .  S
C832        H839   1.087       .  S
C833        C882   1.440       .  S
C834        C838   1.538       .  S
C834        H840   1.112       .  S
C835        H841   1.087       .  S
C835        C836   1.364       .  D
C836        C884   1.440       .  S
C838        C889   1.439       .  S
C843        C844   1.533       .  S
C843        C849   1.531       .  S
C843        C892   1.466       .  S
C844        H851   1.087       .  S
C844        C845   1.364       .  D
C845       C1146   1.537       .  S
C845        C878   1.441       .  S
C846       C1145   1.537   1_545  S
C846        C850   1.540       .  S
C846       C1048   1.537   1_545  S
C846        H852   1.112       .  S
C847        H853   1.087       .  S
C847        C848   1.364       .  D
C848        C946   1.537   1_556  S
C848        C879   1.441       .  S
C849       H1154   1.087       .  S
C849       C1150   1.363       .  D
C850       C1149   1.363   1_545  D
C850        C895   1.441       .  S
H854       C1149   1.087   1_545  S
Fe855       O871   2.062       .  S
Fe855      O1161   2.061       .  S
Fe855       O868   2.063       .  S
Fe855      O1160   2.060       .  S
Fe855       O866   1.982   1_655  S
Fe856       O859   2.061       .  S
Fe856       O872   2.063       .  S
Fe857       O875   2.070       .  S
Fe857       O862   2.068       .  S
Fe857       O869   2.068       .  S
Fe857       O858   2.069       .  S
O859        C873   1.267       .  A
O860      Fe1155   2.060       .  S
O860        C865   1.266   1_655  A
O861      Fe1155   2.061       .  S
O862        C874   1.267       .  A
O863        C876   1.267       .  A
C864        C881   1.435       .  S
C864        O869   1.267       .  A
C865        C883   1.434       .  S
O867        C870   1.267       .  A
O868        C870   1.267       .  A
C870        C887   1.435       .  S
O871        C876   1.266       .  A
O872       C1174   1.267       .  A
C873        C880   1.435       .  S
C873       O1175   1.268       .  A
C874        C877   1.435       .  S
C874       O1172   1.267   1_545  A
O875       C1173   1.268       .  A
C876        C886   1.435       .  S
C877       C1178   1.206       .  T
C878       C1177   1.206       .  T
C879        C880   1.206       .  T
C881        C882   1.205       .  T
C883        C884   1.205   1_455  T
C885        C886   1.206       .  T
C887        C888   1.206       .  T
C889        C890   1.205       .  T
C891        C892   1.205       .  T
C893        C894   1.204       .  T
C895        C896   1.206       .  T
C897        C898   1.206       .  T
C899        C900   1.206       .  T
C901       C1102   1.401       .  A
C901        C906   1.403       .  A
C901        C998   1.440       .  S
C902       C1001   1.401       .  A
C902        C903   1.401       .  A
C902        H907   1.084       .  S
C903        C904   1.401       .  A
C903       C1099   1.439       .  S
C904       C1005   1.401       .  A
C904        H908   1.085       .  S
C905       C1104   1.401       .  A
C905        C906   1.401       .  A
C905        C996   1.440       .  S
C906        H909   1.085       .  S
C910        C911   1.400       .  A
C910        C915   1.402       .  A
C910        C993   1.437       .  S
C911        C912   1.400       .  A
C911        H916   1.085       .  S
C912        C913   1.400       .  A
C912        C991   1.438       .  S
C913        C914   1.401       .  A
C913        H917   1.085       .  S
C914        C915   1.401       .  A
C914        C990   1.438       .  S
C915        H918   1.084       .  S
C919        C920   1.533       .  S
C919        C925   1.530       .  S
C919       C1123   1.533   1_554  S
C919        C994   1.465       .  S
C920        H927   1.087       .  S
C920        C921   1.364       .  D
C921        C922   1.538       .  S
C921        C988   1.441       .  S
C922        C926   1.541       .  S
C922       C1124   1.537   1_554  S
C922        H928   1.112       .  S
C923       C1019   1.533       .  S
C923        H929   1.087       .  S
C923        C924   1.364       .  D
C924       C1022   1.537       .  S
C924        C985   1.441       .  S
C925        H930   1.087       .  S
C925        C926   1.362       .  D
C926        C997   1.441       .  S
C931       C1132   1.534   1_554  S
C931        C937   1.531       .  S
C931        C935   1.534       .  S
C931       C1000   1.467       .  S
C932       C1031   1.534       .  S
C932        H939   1.087       .  S
C933       C1034   1.536       .  S
C933        C982   1.440       .  S
C934       C1133   1.536   1_554  S
C934        C938   1.538       .  S
C934        H940   1.112       .  S
C935        H941   1.087       .  S
C935        C936   1.364       .  D
C936        C984   1.440       .  S
C938        C989   1.439       .  S
C943        C944   1.533       .  S
C943        C949   1.531       .  S
C943       C1147   1.533   1_554  S
C943        C992   1.466       .  S
C944        H951   1.087       .  S
C944        C945   1.364       .  D
C945        C978   1.441   1_565  S
C946        C950   1.540       .  S
C946        H952   1.112       .  S
C947       C1043   1.533       .  S
C947        H953   1.087       .  S
C947        C948   1.364       .  D
C948        C979   1.441   1_565  S
C950        C995   1.441       .  S
Fe955       O971   2.062   1_545  S
Fe955       O968   2.063   1_545  S
Fe955       O966   1.982   1_655  S
Fe956       O959   2.061       .  S
Fe956       O972   2.063       .  S
Fe957       O975   2.070       .  S
Fe957       O962   2.068       .  S
Fe957       O969   2.068       .  S
Fe957       O958   2.069       .  S
O959        C973   1.267   1_565  A
O960        C965   1.266   1_655  A
O962        C974   1.267       .  A
O963        C976   1.267       .  A
C964        C981   1.435       .  S
C964        O969   1.267       .  A
C965        C983   1.434       .  S
O967        C970   1.267       .  A
O968        C970   1.267       .  A
C970        C987   1.435       .  S
O971        C976   1.266       .  A
C973        C980   1.435       .  S
C974        C977   1.435       .  S
C976        C986   1.435       .  S
C979        C980   1.206       .  T
C981        C982   1.205       .  T
C983        C984   1.205   1_455  T
C985        C986   1.206       .  T
C987        C988   1.206       .  T
C989        C990   1.205       .  T
C991        C992   1.205       .  T
C993        C994   1.204       .  T
C995        C996   1.206       .  T
C997        C998   1.206       .  T
C999       C1103   1.439       .  S
C999       C1000   1.206       .  T
C1001      C1006   1.403       .  A
C1001      C1098   1.440       .  S
C1002      C1101   1.401       .  A
C1002      C1003   1.401       .  A
C1002      H1007   1.084       .  S
C1003      C1004   1.401       .  A
C1003      C1199   1.439       .  S
C1004      C1105   1.401       .  A
C1004      H1008   1.085       .  S
C1005      C1006   1.401       .  A
C1005      C1096   1.440       .  S
C1006      H1009   1.085       .  S
C1010      C1011   1.400       .  A
C1010      C1015   1.402       .  A
C1010      C1093   1.437       .  S
C1011      C1012   1.400       .  A
C1011      H1016   1.085       .  S
C1012      C1013   1.400       .  A
C1012      C1091   1.438       .  S
C1013      C1014   1.401       .  A
C1013      H1017   1.085       .  S
C1014      C1015   1.401       .  A
C1014      C1090   1.438       .  S
C1015      H1018   1.084       .  S
C1019      C1020   1.533       .  S
C1019      C1025   1.530       .  S
C1019      C1094   1.465       .  S
C1020      H1027   1.087       .  S
C1020      C1021   1.364       .  D
C1021      C1022   1.538       .  S
C1021      C1088   1.441       .  S
C1022      C1026   1.541       .  S
C1022      H1028   1.112       .  S
C1023      C1119   1.533       .  S
C1023      H1029   1.087       .  S
C1023      C1024   1.364       .  D
C1024      C1122   1.537       .  S
C1024      C1085   1.441       .  S
C1025      H1030   1.087       .  S
C1025      C1026   1.362       .  D
C1026      C1097   1.441       .  S
C1031      C1037   1.531       .  S
C1031      C1035   1.534       .  S
C1031      C1100   1.467       .  S
C1032      C1131   1.534       .  S
C1032      H1039   1.087       .  S
C1033      C1134   1.536       .  S
C1033      C1082   1.440       .  S
C1034      C1038   1.538       .  S
C1034      H1040   1.112       .  S
C1035      H1041   1.087       .  S
C1035      C1036   1.364       .  D
C1036      C1084   1.440       .  S
C1038      C1089   1.439       .  S
C1043      C1044   1.533       .  S
C1043      C1049   1.531       .  S
C1043      C1092   1.466       .  S
C1044      H1051   1.087       .  S
C1044      C1045   1.364       .  D
C1045      C1078   1.441   1_565  S
C1046      C1050   1.540       .  S
C1046      H1052   1.112       .  S
C1047      C1143   1.533       .  S
C1047      H1053   1.087       .  S
C1047      C1048   1.364       .  D
C1048      C1079   1.441   1_565  S
C1050      C1095   1.441       .  S
Fe1055     O1071   2.062   1_545  S
Fe1055     O1068   2.063   1_545  S
Fe1055     O1066   1.982   1_655  S
Fe1056     O1059   2.061       .  S
Fe1056     O1072   2.063       .  S
Fe1057     O1075   2.070       .  S
Fe1057     O1062   2.068       .  S
Fe1057     O1069   2.068       .  S
Fe1057     O1058   2.069       .  S
O1059      C1073   1.267   1_565  A
O1060      C1065   1.266   1_655  A
O1062      C1074   1.267       .  A
O1063      C1076   1.267       .  A
C1064      C1081   1.435       .  S
C1064      O1069   1.267       .  A
C1065      C1083   1.434       .  S
O1067      C1070   1.267       .  A
O1068      C1070   1.267       .  A
C1070      C1087   1.435       .  S
O1071      C1076   1.266       .  A
C1073      C1080   1.435       .  S
C1074      C1077   1.435       .  S
C1076      C1086   1.435       .  S
C1079      C1080   1.206       .  T
C1081      C1082   1.205       .  T
C1083      C1084   1.205   1_455  T
C1085      C1086   1.206       .  T
C1087      C1088   1.206       .  T
C1089      C1090   1.205       .  T
C1091      C1092   1.205       .  T
C1093      C1094   1.204       .  T
C1095      C1096   1.206       .  T
C1097      C1098   1.206       .  T
C1099      C1100   1.206       .  T
C1101      C1106   1.403       .  A
C1101      C1198   1.440       .  S
C1102      C1103   1.401       .  A
C1102      H1107   1.084       .  S
C1103      C1104   1.401       .  A
C1104      H1108   1.085       .  S
C1105      C1106   1.401       .  A
C1105      C1196   1.440       .  S
C1106      H1109   1.085       .  S
C1110      C1111   1.400       .  A
C1110      C1115   1.402       .  A
C1110      C1193   1.437       .  S
C1111      C1112   1.400       .  A
C1111      H1116   1.085       .  S
C1112      C1113   1.400       .  A
C1112      C1191   1.438       .  S
C1113      C1114   1.401       .  A
C1113      H1117   1.085       .  S
C1114      C1115   1.401       .  A
C1114      C1190   1.438       .  S
C1115      H1118   1.084       .  S
C1119      C1120   1.533       .  S
C1119      C1125   1.530       .  S
C1119      C1194   1.465       .  S
C1120      H1127   1.087       .  S
C1120      C1121   1.364       .  D
C1121      C1122   1.538       .  S
C1121      C1188   1.441       .  S
C1122      C1126   1.541       .  S
C1122      H1128   1.112       .  S
C1123      H1129   1.087       .  S
C1123      C1124   1.364       .  D
C1124      C1185   1.441       .  S
C1125      H1130   1.087       .  S
C1125      C1126   1.362       .  D
C1126      C1197   1.441       .  S
C1131      C1137   1.531       .  S
C1131      C1135   1.534       .  S
C1131      C1200   1.467       .  S
C1132      H1139   1.087       .  S
C1133      C1182   1.440       .  S
C1134      C1138   1.538       .  S
C1134      H1140   1.112       .  S
C1135      H1141   1.087       .  S
C1135      C1136   1.364       .  D
C1136      C1184   1.440       .  S
C1138      C1189   1.439       .  S
C1143      C1144   1.533       .  S
C1143      C1149   1.531       .  S
C1143      C1192   1.466       .  S
C1144      H1151   1.087       .  S
C1144      C1145   1.364       .  D
C1145      C1178   1.441   1_565  S
C1146      C1150   1.540       .  S
C1146      H1152   1.112       .  S
C1147      H1153   1.087       .  S
C1147      C1148   1.364       .  D
C1148      C1179   1.441   1_565  S
C1150      C1195   1.441       .  S
Fe1155     O1171   2.062   1_545  S
Fe1155     O1168   2.063   1_545  S
Fe1155     O1166   1.982   1_655  S
Fe1156     O1159   2.061       .  S
Fe1156     O1172   2.063       .  S
Fe1157     O1175   2.070       .  S
Fe1157     O1162   2.068       .  S
Fe1157     O1169   2.068       .  S
Fe1157     O1158   2.069       .  S
O1159      C1173   1.267   1_565  A
O1160      C1165   1.266   1_655  A
O1162      C1174   1.267       .  A
O1163      C1176   1.267       .  A
C1164      C1181   1.435       .  S
C1164      O1169   1.267       .  A
C1165      C1183   1.434       .  S
O1167      C1170   1.267       .  A
O1168      C1170   1.267       .  A
C1170      C1187   1.435       .  S
O1171      C1176   1.266       .  A
C1173      C1180   1.435       .  S
C1174      C1177   1.435       .  S
C1176      C1186   1.435       .  S
C1179      C1180   1.206       .  T
C1181      C1182   1.205       .  T
C1183      C1184   1.205   1_455  T
C1185      C1186   1.206       .  T
C1187      C1188   1.206       .  T
C1189      C1190   1.205       .  T
C1191      C1192   1.205       .  T
C1193      C1194   1.204       .  T
C1195      C1196   1.206       .  T
C1197      C1198   1.206       .  T
C1199      C1200   1.206       .  T
