geometry optimzed in LAMMPS
_audit_creation_date              2020-11-30 
_audit_creation_method            'lammps2cif' 
_symmetry_space_group_name_H-M    'P1' 
_symmetry_Int_Tables_number       1 
_symmetry_cell_setting            triclinic 
loop_ 
_symmetry_equiv_pos_as_xyz 
  x,y,z 
_cell_length_a                    38.89150561 
_cell_length_b                    38.939323365336854 
_cell_length_c                    38.822102562098664 
_cell_angle_alpha                 90.00798660385267 
_cell_angle_beta                  89.846843373142 
_cell_angle_gamma                 89.93975535796851 
loop_ 
_atom_site_label 
_atom_site_type_symbol 
_atom_site_fract_x 
_atom_site_fract_y 
_atom_site_fract_z 
_atom_site_charge 
Zn1        Zn  0.99515487  0.04711394  0.98299349     1.49700
Zn2        Zn  0.97072904  0.96959928  0.97190795     1.49400
Zn3        Zn  0.04672534  0.98480449  0.99998355     1.49100
Zn4        Zn  0.98114145  0.99897430  0.04852051     1.49500
O5          O  0.99847690  0.00006117  0.00086882    -1.80300
O6          O  0.96414137  0.04990411  0.94156237    -0.70900
O7          O  0.00009209  0.93232259  0.95052909    -0.70800
O8          O  0.07762247  0.02237733  0.98166652    -0.70300
O9          O  0.94761999  0.99583605  0.93331942    -0.71000
O10         O  0.04161040  0.06496787  0.96882645    -0.70600
O11         O  0.05296170  0.94307815  0.96951759    -0.71100
O12         O  0.01729293  0.98103757  0.08107648    -0.70500
O13         O  0.93344042  0.94686499  0.00000266    -0.71300
O14         O  0.06304224  0.97179360  0.04773778    -0.70700
O15         O  0.93976433  0.96802913  0.05290253    -0.71200
O16         O  0.96754868  0.04635889  0.06489498    -0.71100
O17         O  0.97681954  0.07948684  0.01908713    -0.70800
C18         C  0.94738345  0.02740917  0.92485311     0.80900
C19         C  0.03202341  0.92525332  0.95186693     0.81400
C20         C  0.07176073  0.05242716  0.97017310     0.80400
C21         C  0.04833005  0.97148296  0.07705794     0.80800
C22         C  0.92424368  0.94892147  0.03141528     0.81900
C23         C  0.96735262  0.07555665  0.05020624     0.81000
C24         C  0.05339343  0.33737407  0.10090378     0.06900
C25         C  0.03103210  0.30925647  0.09880691    -0.09200
C26         C  0.03912002  0.27818289  0.11541682     0.04400
C27         C  0.07007274  0.27550564  0.13364031    -0.07700
C28         C  0.09226070  0.30369449  0.13623138     0.06900
C29         C  0.08396939  0.33465690  0.11979545    -0.07200
H30         H  0.00765140  0.31152033  0.08385410     0.12500
H31         H  0.07657145  0.25162874  0.14646366     0.10100
H32         H  0.10119847  0.35644649  0.12164147     0.09900
C33         C  0.90378948  0.19805971  0.13703923     0.06900
C34         C  0.91124057  0.16673644  0.12093469    -0.09200
C35         C  0.94187812  0.16290662  0.10223617     0.04400
C36         C  0.96520866  0.19027285  0.10003846    -0.07700
C37         C  0.95776928  0.22178816  0.11614727     0.06900
C38         C  0.92675323  0.22555003  0.13420593    -0.07200
H39         H  0.89331480  0.14551025  0.12290504     0.12500
H40         H  0.98868589  0.18717763  0.08525983     0.10100
H41         H  0.92076703  0.24976520  0.14667542     0.09900
C42         C  0.84433987  0.11558611  0.44776134     0.06900
C43         C  0.82138437  0.11873612  0.47543720    -0.09200
C44         C  0.79095250  0.13774827  0.47201541     0.04400
C45         C  0.78414694  0.15457401  0.44070533    -0.07700
C46         C  0.80729174  0.15198365  0.41306593     0.06900
C47         C  0.83737024  0.13233728  0.41654692    -0.07200
H48         H  0.82683635  0.10567324  0.49948308     0.12500
H49         H  0.76109122  0.16995574  0.43785974     0.10100
H50         H  0.85512705  0.12998686  0.39509957     0.09900
C51         C  0.69245873  0.15057926  0.58666623     0.06900
C52         C  0.66188365  0.13203950  0.58248925    -0.09200
C53         C  0.65442602  0.11675206  0.55071084     0.04400
C54         C  0.67742640  0.12015684  0.52311618    -0.07700
C55         C  0.70841524  0.13804950  0.52721490     0.06900
C56         C  0.71571307  0.15347494  0.55914651    -0.07200
H57         H  0.64404162  0.12947692  0.60384473     0.12500
H58         H  0.67156913  0.10815067  0.49862158     0.10100
H59         H  0.73916841  0.16807480  0.56254196     0.09900
Zn60       Zn  0.71870692  0.22236633  0.28003642     1.49700
Zn61       Zn  0.74318617  0.23183691  0.20184987     1.49400
Zn62       Zn  0.73105151  0.29797252  0.24939932     1.49100
Zn63       Zn  0.79520017  0.24814682  0.26414938     1.49500
O64         O  0.74707829  0.25008870  0.24887413    -1.80300
O65         O  0.69640485  0.18292660  0.25475279    -0.70900
O66         O  0.72442036  0.26744935  0.16914660    -0.70800
O67         O  0.68885416  0.30332351  0.27923701    -0.70300
O68         O  0.71251107  0.19009237  0.20016728    -0.71000
O69         O  0.68067067  0.25093685  0.30074672    -0.70600
O70         O  0.71840156  0.31417577  0.20163052    -0.71100
O71         O  0.81266643  0.29539711  0.27688633    -0.70500
O72         O  0.78961579  0.21808797  0.18336634    -0.71300
O73         O  0.76777306  0.32967256  0.26765280    -0.70700
O74         O  0.82569013  0.22966414  0.22629092    -0.71200
O75         O  0.80068619  0.21803988  0.30631999    -0.71100
O76         O  0.74706326  0.20226110  0.31869079    -0.70800
C77         C  0.69614904  0.17370761  0.22331701     0.80900
C78         C  0.71658799  0.29897068  0.17269385     0.81400
C79         C  0.67204517  0.28232410  0.29785090     0.80400
C80         C  0.79870921  0.32496497  0.27713518     0.80800
C81         C  0.81976625  0.21899910  0.19589782     0.81900
C82         C  0.77910356  0.20228662  0.32525995     0.81000
C83         C  0.83960775  0.60588677  0.55282060     0.06900
C84         C  0.83490254  0.62443751  0.58345964    -0.09200
C85         C  0.80648538  0.64638913  0.58699593     0.04400
C86         C  0.78324740  0.65015522  0.55979011    -0.07700
C87         C  0.78742827  0.63109389  0.52950289     0.06900
C88         C  0.81565678  0.60889071  0.52612127    -0.07200
H89         H  0.85318928  0.62183619  0.60433570     0.12500
H90         H  0.76135444  0.66722747  0.56253201     0.10100
H91         H  0.81934498  0.59451990  0.50246361     0.09900
C92         C  0.69729728  0.63700967  0.40871577     0.06900
C93         C  0.66635322  0.61911830  0.41354322    -0.09200
C94         C  0.66247818  0.59721404  0.44198376     0.04400
C95         C  0.68964489  0.59285043  0.46515784    -0.07700
C96         C  0.72024721  0.61124117  0.46085807     0.06900
C97         C  0.72400396  0.63334289  0.43257140    -0.07200
H98         H  0.64544539  0.62229363  0.39539673     0.12500
H99         H  0.68660281  0.57594011  0.48715514     0.10100
H100        H  0.74784951  0.64730798  0.42891791     0.09900
Zn101      Zn  0.04611405  0.51389319  0.49909404     1.49700
Zn102      Zn  0.99737145  0.44960102  0.48211745     1.49400
Zn103      Zn  0.98076513  0.49805306  0.54727949     1.49100
Zn104      Zn  0.96996209  0.52634262  0.47074335     1.49500
O105        O  0.99858319  0.49690741  0.49982356    -1.80300
O106        O  0.07859591  0.47777334  0.48072892    -0.70900
O107        O  0.98092803  0.41699388  0.51897409    -0.70800
O108        O  0.01606758  0.51727563  0.57986864    -0.70300
O109        O  0.04472547  0.43377665  0.46704761    -0.71000
O110        O  0.06171454  0.52751894  0.54672141    -0.70600
O111        O  0.96854225  0.45049122  0.56384525    -0.71100
O112        O  0.93250330  0.54909758  0.49847999    -0.70500
O113        O  0.96485156  0.44523723  0.44167551    -0.71300
O114        O  0.93859473  0.52806505  0.55139863    -0.70700
O115        O  0.94669092  0.49885901  0.43352940    -0.71200
O116        O  0.99795280  0.56400428  0.44863104    -0.71100
O117        O  0.05079419  0.55587564  0.46895771    -0.70800
C118        C  0.07427885  0.44769292  0.46869966     0.80900
C119        C  0.97029039  0.42106394  0.54972011     0.81400
C120        C  0.04680535  0.52767672  0.57591871     0.80400
C121        C  0.92306241  0.54703422  0.52978889     0.80800
C122        C  0.94678843  0.46718836  0.42550404     0.81900
C123        C  0.02942184  0.57260208  0.45075067     0.81000
C124        C  0.40933282  0.80967886  0.15055377     0.06900
C125        C  0.43592376  0.78578220  0.15491630    -0.09200
C126        C  0.46720537  0.78981448  0.13742816     0.04400
C127        C  0.47216403  0.81856011  0.11618786    -0.07700
C128        C  0.44608923  0.84314077  0.11251719     0.06900
C129        C  0.41448511  0.83857070  0.12951348    -0.07200
H130        H  0.43196874  0.76352360  0.17124118     0.12500
H131        H  0.49651971  0.82208365  0.10299931     0.10100
H132        H  0.39408752  0.85729848  0.12636795     0.09900
C133        C  0.58852242  0.69890544  0.14339910     0.06900
C134        C  0.56451937  0.72561809  0.14035787    -0.09200
C135        C  0.53593764  0.72198364  0.11867533     0.04400
C136        C  0.53135312  0.69140914  0.10027559    -0.07700
C137        C  0.55459366  0.66419682  0.10410191     0.06900
C138        C  0.58338021  0.66801323  0.12548869    -0.07200
H139        H  0.56844143  0.74947314  0.15421134     0.12500
H140        H  0.50924289  0.68853827  0.08355458     0.10100
H141        H  0.60169073  0.64716101  0.12807864     0.09900
C142        C  0.14030124  0.09245218  0.30157555     0.06900
C143        C  0.13712243  0.06920387  0.27427625    -0.09200
C144        C  0.11893737  0.03844619  0.27856718     0.04400
C145        C  0.10320401  0.03149493  0.31046008    -0.07700
C146        C  0.10600722  0.05488725  0.33773991     0.06900
C147        C  0.12473054  0.08533725  0.33337704    -0.07200
H148        H  0.14917032  0.07490177  0.24970844     0.12500
H149        H  0.08816737  0.00833902  0.31395279     0.10100
H150        H  0.12694034  0.10345719  0.35446037     0.09900
C151        C  0.09955164  0.94216794  0.16388370     0.06900
C152        C  0.11737996  0.91096164  0.16685328    -0.09200
C153        C  0.13362456  0.90248214  0.19792234     0.04400
C154        C  0.13187984  0.92507534  0.22592633    -0.07700
C155        C  0.11478728  0.95661579  0.22295759     0.06900
C156        C  0.09834494  0.96492372  0.19183197    -0.07200
H157        H  0.11867616  0.89347865  0.14515111     0.12500
H158        H  0.14463395  0.91847573  0.24984126     0.10100
H159        H  0.08429926  0.98884692  0.18937959     0.09900
Zn160      Zn  0.25096016  0.73352445  0.30055944     1.49700
Zn161      Zn  0.27896891  0.72141412  0.22381622     1.49400
Zn162      Zn  0.20046158  0.74332455  0.23597255     1.49100
Zn163      Zn  0.26147552  0.79753813  0.24900892     1.49500
O164        O  0.24793005  0.74899624  0.25240068    -1.80300
O165        O  0.28333029  0.69304892  0.30556251    -0.70900
O166        O  0.25272483  0.69536745  0.18754207    -0.70800
O167        O  0.16939455  0.72673181  0.27417468    -0.70300
O168        O  0.30375219  0.68623795  0.25238220    -0.71000
O169        O  0.20419826  0.71986951  0.31909103    -0.70600
O170        O  0.19789580  0.70905651  0.19695271    -0.71100
O171        O  0.22257136  0.82614002  0.22996587    -0.70500
O172        O  0.31503920  0.75076340  0.20056063    -0.71300
O173        O  0.18083307  0.78847650  0.21940261    -0.70700
O174        O  0.30296909  0.80384932  0.21804877    -0.71200
O175        O  0.27445422  0.81649811  0.29571136    -0.71100
O176        O  0.26885166  0.77159874  0.33080218    -0.70800
C177        C  0.30266313  0.67773277  0.28397100     0.80900
C178        C  0.22093136  0.69259300  0.18047413     0.81400
C179        C  0.17446702  0.71874951  0.30551673     0.80400
C180        C  0.19250245  0.81898924  0.21929250     0.80800
C181        C  0.32135355  0.78281717  0.20096040     0.81900
C182        C  0.27660777  0.80287582  0.32541938     0.81000
Zn183      Zn  0.21947017  0.22179997  0.21777450     1.49700
Zn184      Zn  0.29680666  0.24603640  0.23021039     1.49400
Zn185      Zn  0.23396633  0.29833808  0.24440118     1.49100
Zn186      Zn  0.24670204  0.23399333  0.29473970     1.49500
O187        O  0.24919890  0.25014339  0.24681721    -1.80300
O188        O  0.24650976  0.19771300  0.18040286    -0.70900
O189        O  0.31580517  0.29226075  0.21688836    -0.70800
O190        O  0.19351353  0.30409793  0.21197083    -0.70300
O191        O  0.30036294  0.21490357  0.18886425    -0.71000
O192        O  0.18343718  0.25062338  0.19440734    -0.70600
O193        O  0.27263299  0.32848469  0.22728154    -0.71100
O194        O  0.22919627  0.27138503  0.32623992    -0.70500
O195        O  0.32793100  0.22702526  0.26698918    -0.71300
O196        O  0.21987176  0.31597415  0.29158081    -0.70700
O197        O  0.29348232  0.21943963  0.31220218    -0.71200
O198        O  0.21477298  0.19339861  0.29927426    -0.71100
O199        O  0.19544588  0.18552295  0.24591343    -0.70800
C200        C  0.27820431  0.19763089  0.17224046     0.80900
C201        C  0.30330380  0.32243840  0.21748679     0.81400
C202        C  0.17644655  0.28252922  0.19428816     0.80400
C203        C  0.21973845  0.30228124  0.32136729     0.80800
C204        C  0.32302461  0.21807705  0.29810556     0.81900
C205        C  0.19633091  0.17732081  0.27761363     0.81000
C206        C  0.55142804  0.84676015  0.61672346     0.06900
C207        C  0.58305070  0.83922585  0.63220503    -0.09200
C208        C  0.58731402  0.80833376  0.65025411     0.04400
C209        C  0.56005708  0.78485941  0.65244156    -0.07700
C210        C  0.52829249  0.79227021  0.63683168     0.06900
C211        C  0.52410824  0.82354027  0.61945752    -0.07200
H212        H  0.60420148  0.85724246  0.63017968     0.12500
H213        H  0.56351443  0.76116620  0.66666105     0.10100
H214        H  0.49972982  0.82948143  0.60731932     0.09900
C215        C  0.41443654  0.69339605  0.64740515     0.06900
C216        C  0.44184687  0.71652399  0.65072066    -0.09200
C217        C  0.47360414  0.70978964  0.63461301     0.04400
C218        C  0.47767250  0.67945375  0.61557476    -0.07700
C219        C  0.45023776  0.65653264  0.61171897     0.06900
C220        C  0.41859015  0.66344606  0.62771020    -0.07200
H221        H  0.43851238  0.73942236  0.66624266     0.12500
H222        H  0.50207701  0.67399894  0.60312846     0.10100
H223        H  0.39738030  0.64562565  0.62490503     0.09900
Zn224      Zn  0.54691778  0.98680550  0.50770989     1.49700
Zn225      Zn  0.48479359  0.99794795  0.45399098     1.49400
Zn226      Zn  0.46939926  0.97260906  0.53089969     1.49100
Zn227      Zn  0.49445431  0.04978940  0.51750835     1.49500
O228        O  0.49891358  0.00181139  0.50244078    -1.80300
O229        O  0.56623697  0.97021981  0.46237999    -0.70900
O230        O  0.44436063  0.96570476  0.44856424    -0.70800
O231        O  0.49701636  0.93658111  0.55575835    -0.70300
O232        O  0.52370370  0.97913957  0.42510138    -0.71000
O233        O  0.55137570  0.94787575  0.54186834    -0.70600
O234        O  0.43367458  0.94844686  0.50219630    -0.71100
O235        O  0.46387264  0.05382093  0.55939792    -0.70500
O236        O  0.47076291  0.04425742  0.43463721    -0.71300
O237        O  0.44554445  0.00029243  0.56766073    -0.70700
O238        O  0.47504027  0.07943023  0.47965532    -0.71200
O239        O  0.54062120  0.06976672  0.52999615    -0.71100
O240        O  0.57687212  0.02592428  0.52367051    -0.70800
C241        C  0.55407402  0.96914096  0.43202166     0.80900
C242        C  0.42708960  0.94811076  0.47011583     0.81400
C243        C  0.52902371  0.93040460  0.55816646     0.80400
C244        C  0.44638822  0.03182247  0.57613517     0.80800
C245        C  0.46774337  0.07387034  0.44822523     0.81900
C246        C  0.57076282  0.05714592  0.53115669     0.81000
C247        C  0.34062786  0.38823531  0.55172616     0.06900
C248        C  0.33621617  0.36927468  0.58211889    -0.09200
C249        C  0.30832343  0.34671197  0.58536300     0.04400
C250        C  0.28523624  0.34273010  0.55801209    -0.07700
C251        C  0.28902335  0.36223608  0.52791258     0.06900
C252        C  0.31678120  0.38507632  0.52489632    -0.07200
H253        H  0.35435573  0.37206212  0.60309844     0.12500
H254        H  0.26370613  0.32522487  0.56054126     0.10100
H255        H  0.32017340  0.39982960  0.50144350     0.09900
C256        C  0.19750336  0.35892849  0.40705420     0.06900
C257        C  0.22406129  0.36151361  0.43129177    -0.09200
C258        C  0.21992862  0.38209757  0.46072563     0.04400
C259        C  0.18898811  0.39986503  0.46582601    -0.07700
C260        C  0.16196350  0.39646559  0.44229984     0.06900
C261        C  0.16629171  0.37616528  0.41274485    -0.07200
H262        H  0.24816013  0.34816162  0.42690211     0.12500
H263        H  0.18568622  0.41576193  0.48854232     0.10100
H264        H  0.14556773  0.37388729  0.39425724     0.09900
C265        C  0.54945022  0.33913143  0.38990825     0.06900
C266        C  0.52250695  0.31568599  0.38536773    -0.09200
C267        C  0.52589529  0.28860543  0.36172579     0.04400
C268        C  0.55638382  0.28507945  0.34279953    -0.07700
C269        C  0.58377893  0.30773524  0.34817291     0.06900
C270        C  0.58024766  0.33496246  0.37152978    -0.07200
H271        H  0.49877037  0.31877617  0.39976449     0.12500
H272        H  0.55920160  0.26398523  0.32476207     0.10100
H273        H  0.60132531  0.35274810  0.37540766     0.09900
C274        C  0.40772783  0.19445932  0.35497173     0.06900
C275        C  0.41319770  0.16333587  0.37235441    -0.09200
C276        C  0.44230390  0.15925980  0.39323520     0.04400
C277        C  0.46558473  0.18640673  0.39699180    -0.07700
C278        C  0.46064433  0.21728354  0.37915527     0.06900
C279        C  0.43167246  0.22116537  0.35801098    -0.07200
H280        H  0.39481813  0.14256969  0.36987702     0.12500
H281        H  0.48789109  0.18332733  0.41341786     0.10100
H282        H  0.42728763  0.24524580  0.34469206     0.09900
C283        C  0.60145093  0.55947373  0.83833929     0.06900
C284        C  0.62111177  0.58942528  0.83450840    -0.09200
C285        C  0.63725257  0.59643251  0.80295262     0.04400
C286        C  0.63353241  0.57370477  0.77529650    -0.07700
C287        C  0.61456901  0.54337208  0.77906245     0.06900
C288        C  0.59837821  0.53642326  0.81074532    -0.07200
H289        H  0.62381596  0.60712656  0.85588944     0.12500
H290        H  0.64612656  0.57925769  0.75096882     0.10100
H291        H  0.58300088  0.51343056  0.81385349     0.09900
C292        C  0.63819679  0.40837118  0.69991656     0.06900
C293        C  0.63419415  0.43114280  0.72751984    -0.09200
C294        C  0.61510854  0.46142748  0.72363378     0.04400
C295        C  0.59913657  0.46827226  0.69187228    -0.07700
C296        C  0.60259591  0.44516244  0.66433951     0.06900
C297        C  0.62233208  0.41529666  0.66832081    -0.07200
H298        H  0.64656541  0.42561706  0.75190450     0.12500
H299        H  0.58362102  0.49117838  0.68867159     0.10100
H300        H  0.62522229  0.39750452  0.64701466     0.09900
Zn301      Zn  0.54724272  0.47977569  0.49908408     1.49700
Zn302      Zn  0.49874810  0.54541899  0.48451520     1.49400
Zn303      Zn  0.47044857  0.46946360  0.47153617     1.49100
Zn304      Zn  0.48269065  0.49546520  0.54855016     1.49500
O305        O  0.49988566  0.49761906  0.50095522    -1.80300
O306        O  0.57931478  0.51531041  0.47915149    -0.70900
O307        O  0.46752048  0.55065051  0.44317077    -0.70800
O308        O  0.49734179  0.43145259  0.44908785    -0.70300
O309        O  0.54613189  0.56101273  0.46980908    -0.71000
O310        O  0.55062162  0.43737976  0.46899386    -0.70600
O311        O  0.44874145  0.49749795  0.43385996    -0.71100
O312        O  0.44098578  0.46460413  0.55276251    -0.70500
O313        O  0.48188675  0.57745492  0.52202876    -0.71300
O314        O  0.43240221  0.44742958  0.49879407    -0.70700
O315        O  0.46962087  0.54257737  0.56582038    -0.71200
O316        O  0.51937201  0.47779358  0.58057225    -0.71100
O317        O  0.56461047  0.46775144  0.54675022    -0.70800
C318        C  0.57525477  0.54610880  0.46900602     0.80900
C319        C  0.44985883  0.52916601  0.42600591     0.81400
C320        C  0.52851924  0.42178521  0.45064374     0.80400
C321        C  0.42412968  0.44760857  0.53048803     0.80800
C322        C  0.47119219  0.57243528  0.55263982     0.81900
C323        C  0.55040871  0.46835062  0.57632407     0.81000
C324        C  0.30586492  0.14493989  0.08576613     0.06900
C325        C  0.28326724  0.14790889  0.05791148    -0.09200
C326        C  0.29081266  0.13179191  0.02639012     0.04400
C327        C  0.32147394  0.11321584  0.02291683    -0.07700
C328        C  0.34392178  0.10979050  0.05082398     0.06900
C329        C  0.33618244  0.12568853  0.08232299    -0.07200
H330        H  0.26008699  0.16313710  0.06073161     0.12500
H331        H  0.32752741  0.10077295  0.99864775     0.10100
H332        H  0.35363221  0.12318904  0.10391394     0.09900
C333        C  0.19229998  0.14746506  0.91285843     0.06900
C334        C  0.16205658  0.12815646  0.91646627    -0.09200
C335        C  0.15515462  0.11121946  0.94760278     0.04400
C336        C  0.17827891  0.11375764  0.97499730    -0.07700
C337        C  0.20884934  0.13235608  0.97136543     0.06900
C338        C  0.21571005  0.14936508  0.94017505    -0.07200
H339        H  0.14403721  0.12639465  0.89528341     0.12500
H340        H  0.17277358  0.10064535  0.99903503     0.10100
H341        H  0.23888898  0.16453447  0.93727817     0.09900
C342        C  0.11131843  0.44663773  0.84038457     0.06900
C343        C  0.11416208  0.47330470  0.81633044    -0.09200
C344        C  0.13522296  0.46950047  0.78717171     0.04400
C345        C  0.15336139  0.43880418  0.78221464    -0.07700
C346        C  0.14983618  0.41166539  0.80561224     0.06900
C347        C  0.12895107  0.41562599  0.83489855    -0.07200
H348        H  0.10049970  0.49722520  0.82061025     0.12500
H349        H  0.16957608  0.43573793  0.75964587     0.10100
H350        H  0.12648838  0.39479703  0.85327015     0.09900
C351        C  0.13961004  0.58964027  0.69502838     0.06900
C352        C  0.12092321  0.58392199  0.66470856    -0.09200
C353        C  0.09888402  0.55552722  0.66235816     0.04400
C354        C  0.09516009  0.53327171  0.69041821    -0.07700
C355        C  0.11440347  0.53837029  0.72038568     0.06900
C356        C  0.13672173  0.56656784  0.72260415    -0.07200
H357        H  0.12347910  0.60143616  0.64314246     0.12500
H358        H  0.07807612  0.51135143  0.68856423     0.10100
H359        H  0.15130472  0.57085562  0.74598095     0.09900
Zn360      Zn  0.26902609  0.29652484  0.75026227     1.49700
Zn361      Zn  0.25556581  0.22947860  0.70421805     1.49400
Zn362      Zn  0.28070349  0.22167808  0.78230866     1.49100
Zn363      Zn  0.20419357  0.24767685  0.76655000     1.49500
O364        O  0.25231314  0.24889082  0.75083963    -1.80300
O365        O  0.28245434  0.31120893  0.70206082    -0.70900
O366        O  0.28580332  0.18743907  0.70314155    -0.70800
O367        O  0.31797873  0.25057675  0.80386068    -0.70300
O368        O  0.27499211  0.26395341  0.67068010    -0.71000
O369        O  0.31077229  0.30232224  0.78060661    -0.70600
O370        O  0.30368580  0.18249943  0.75733221    -0.71100
O371        O  0.19849170  0.21694240  0.80823449    -0.70500
O372        O  0.20891004  0.21597614  0.68635189    -0.71300
O373        O  0.25205488  0.20077087  0.82021009    -0.70700
O374        O  0.17302268  0.22978355  0.72895317    -0.71200
O375        O  0.18784000  0.29520227  0.78002366    -0.71100
O376        O  0.23252445  0.32894957  0.76807858    -0.70800
C377        C  0.28382467  0.29526292  0.67347144     0.80900
C378        C  0.30310523  0.17215271  0.72627478     0.81400
C379        C  0.32682528  0.28183657  0.80038839     0.80400
C380        C  0.21998919  0.20063699  0.82671447     0.80800
C381        C  0.17874379  0.21802449  0.69887919     0.81900
C382        C  0.20197601  0.32465506  0.77908049     0.81000
Zn383      Zn  0.47338882  0.02767491  0.97003492     1.49700
Zn384      Zn  0.50016334  0.95120869  0.98474101     1.49400
Zn385      Zn  0.54969729  0.01624040  0.99775548     1.49100
Zn386      Zn  0.48539233  0.00252518  0.04789673     1.49500
O387        O  0.50215265  0.99933636  0.00012956    -1.80300
O388        O  0.45099711  0.99905087  0.93291317    -0.70900
O389        O  0.54740046  0.93434052  0.97069763    -0.70800
O390        O  0.55392479  0.05807414  0.96737905    -0.70300
O391        O  0.46888164  0.94575829  0.94346252    -0.71000
O392        O  0.50089729  0.06539210  0.94732495    -0.70600
O393        O  0.58124699  0.97972476  0.97892476    -0.71100
O394        O  0.52227573  0.02086007  0.07937970    -0.70500
O395        O  0.48209754  0.92028050  0.02267321    -0.71300
O396        O  0.56708799  0.02971846  0.04472699    -0.70700
O397        O  0.47109660  0.95598778  0.06613632    -0.71200
O398        O  0.44454213  0.03429288  0.05155611    -0.71100
O399        O  0.43596560  0.05097399  0.99739498    -0.70800
C400        C  0.45144906  0.96712611  0.92588122     0.80900
C401        C  0.57675015  0.94874050  0.96959884     0.81400
C402        C  0.53225542  0.07441389  0.94919339     0.80400
C403        C  0.55320120  0.03027243  0.07440537     0.80800
C404        C  0.47152162  0.92595453  0.05321641     0.81900
C405        C  0.42800446  0.05146152  0.02918979     0.81000
C406        C  0.88713114  0.44569317  0.34231101     0.06900
C407        C  0.88369210  0.47361705  0.31988530    -0.09200
C408        C  0.86504040  0.47038992  0.28923613     0.04400
C409        C  0.84882285  0.43904512  0.28166730    -0.07700
C410        C  0.85160596  0.41119125  0.30436588     0.06900
C411        C  0.87096894  0.41443750  0.33464687    -0.07200
H412        H  0.89624915  0.49772864  0.32592308     0.12500
H413        H  0.83362676  0.43640504  0.25845502     0.10100
H414        H  0.87341367  0.39284444  0.35209878     0.09900
C415        C  0.85134070  0.58613790  0.19323869     0.06900
C416        C  0.84844400  0.55802836  0.21560234    -0.09200
C417        C  0.86517950  0.52690592  0.20796921     0.04400
C418        C  0.88436238  0.52412090  0.17750380    -0.07700
C419        C  0.88781077  0.55227450  0.15535792     0.06900
C420        C  0.87122555  0.58333367  0.16314823    -0.07200
H421        H  0.83286010  0.56034317  0.23867231     0.12500
H422        H  0.89730795  0.50018743  0.17139903     0.10100
H423        H  0.87375697  0.60512016  0.14594579     0.09900
C424        C  0.60996174  0.05143115  0.15958865     0.06900
C425        C  0.62580195  0.08272306  0.16760838    -0.09200
C426        C  0.64464348  0.08597571  0.19818020     0.04400
C427        C  0.64724319  0.05805982  0.22083496    -0.07700
C428        C  0.63126254  0.02663808  0.21293057     0.06900
C429        C  0.61306821  0.02346471  0.18200109    -0.07200
H430        H  0.62361850  0.10432371  0.15012310     0.12500
H431        H  0.66217974  0.06070626  0.24420872     0.10100
H432        H  0.60076258  0.99930977  0.17563216     0.09900
C433        C  0.61236910  0.94552743  0.34842439     0.06900
C434        C  0.61456506  0.97317562  0.32553246    -0.09200
C435        C  0.63207693  0.96980067  0.29415261     0.04400
C436        C  0.64825531  0.93843822  0.28618404    -0.07700
C437        C  0.64662051  0.91079709  0.30931124     0.06900
C438        C  0.62846995  0.91428923  0.34041014    -0.07200
H439        H  0.60205542  0.99727285  0.33191085     0.12500
H440        H  0.66265712  0.93564721  0.26241696     0.10100
H441        H  0.62695459  0.89291569  0.35824194     0.09900
C442        C  0.05534983  0.66146923  0.40182704     0.06900
C443        C  0.08457168  0.66597075  0.38109366    -0.09200
C444        C  0.09003230  0.69735465  0.36424411     0.04400
C445        C  0.06594098  0.72395464  0.36768528    -0.07700
C446        C  0.03677980  0.71964475  0.38866139     0.06900
C447        C  0.03190137  0.68849550  0.40606828    -0.07200
H448        H  0.10291868  0.64519106  0.37807200     0.12500
H449        H  0.07013285  0.74814891  0.35451296     0.10100
H450        H  0.00934619  0.68497935  0.42216771     0.09900
C451        C  0.91187546  0.80689784  0.35281560     0.06900
C452        C  0.93915791  0.78357825  0.34985127    -0.09200
C453        C  0.96946280  0.78850576  0.36860962     0.04400
C454        C  0.97273951  0.81751680  0.38981610    -0.07700
C455        C  0.94599247  0.84164677  0.39191047     0.06900
C456        C  0.91539117  0.83615493  0.37362427    -0.07200
H457        H  0.93653059  0.76112778  0.33353226     0.12500
H458        H  0.99637901  0.82171054  0.40394823     0.10100
H459        H  0.89450560  0.85453189  0.37552301     0.09900
C460        C  0.80758306  0.84983724  0.08882426     0.06900
C461        C  0.78474247  0.84577873  0.06131214    -0.09200
C462        C  0.78924228  0.86462690  0.03093875     0.04400
C463        C  0.81739632  0.88687662  0.02776791    -0.07700
C464        C  0.84097990  0.89014831  0.05475249     0.06900
C465        C  0.83592769  0.87186877  0.08549739    -0.07200
H466        H  0.76289447  0.82867011  0.06387639     0.12500
H467        H  0.82131164  0.90107607  0.00404830     0.10100
H468        H  0.85391509  0.87470109  0.10659403     0.09900
C469        C  0.66413257  0.89742904  0.94323961     0.06900
C470        C  0.66881931  0.87651139  0.91416796    -0.09200
C471        C  0.70029123  0.85956698  0.90903620     0.04400
C472        C  0.72666549  0.86306430  0.93327980    -0.07700
C473        C  0.72209215  0.88420039  0.96219410     0.06900
C474        C  0.69098670  0.90172678  0.96677485    -0.07200
H475        H  0.64819241  0.87349861  0.89567807     0.12500
H476        H  0.75092260  0.84983900  0.92938633     0.10100
H477        H  0.68737104  0.91798927  0.98918238     0.09900
Zn478      Zn  0.70180987  0.74712500  0.26880657     1.49700
Zn479      Zn  0.76614812  0.79641020  0.25242640     1.49400
Zn480      Zn  0.77920596  0.72017658  0.28028333     1.49100
Zn481      Zn  0.75073847  0.73128413  0.20381228     1.49500
O482        O  0.74941015  0.74876259  0.25133963    -1.80300
O483        O  0.68530135  0.79444789  0.28311754    -0.70900
O484        O  0.80781581  0.80133099  0.28303431    -0.70800
O485        O  0.75166839  0.69743825  0.31797578    -0.70300
O486        O  0.72944191  0.82859314  0.27037135    -0.71000
O487        O  0.69786186  0.71530704  0.30988554    -0.70600
O488        O  0.81698308  0.74828450  0.30227957    -0.71100
O489        O  0.78058319  0.68891517  0.19977892    -0.70500
O490        O  0.78023650  0.81230353  0.20491800    -0.71300
O491        O  0.80163984  0.68225934  0.25259888    -0.70700
O492        O  0.77032313  0.76689893  0.17152079    -0.71200
O493        O  0.70304848  0.71917414  0.18698751    -0.71100
O494        O  0.66923322  0.72994356  0.23208762    -0.70800
C495        C  0.69904977  0.82407345  0.28171284     0.80900
C496        C  0.82496006  0.77994330  0.30083661     0.81400
C497        C  0.71999080  0.69762186  0.32624476     0.80400
C498        C  0.79935303  0.67295468  0.22127421     0.80800
C499        C  0.78064603  0.79761168  0.17565016     0.81900
C500        C  0.67349664  0.72005370  0.20112235     0.81000
C501        C  0.36195115  0.59439670  0.30500629     0.06900
C502        C  0.36470496  0.57177690  0.27709905    -0.09200
C503        C  0.38315666  0.54101140  0.28023493     0.04400
C504        C  0.39981281  0.53352826  0.31146265    -0.07700
C505        C  0.39770798  0.55647918  0.33923020     0.06900
C506        C  0.37856610  0.58683877  0.33607507    -0.07200
H507        H  0.35183565  0.57779007  0.25309250     0.12500
H508        H  0.41485422  0.51022864  0.31404718     0.10100
H509        H  0.37663234  0.60445588  0.35762762     0.09900
C510        C  0.36287556  0.40617237  0.19876123     0.06900
C511        C  0.37981222  0.41390663  0.16781843    -0.09200
C512        C  0.39872873  0.44440274  0.16486718     0.04400
C513        C  0.40037932  0.46722678  0.19273674    -0.07700
C514        C  0.38335224  0.45961423  0.22381897     0.06900
C515        C  0.36503567  0.42877011  0.22672174    -0.07200
H516        H  0.37825957  0.39635173  0.14619752     0.12500
H517        H  0.41534216  0.49056610  0.19030625     0.10100
H518        H  0.35184859  0.42265573  0.25059271     0.09900
Zn519      Zn  0.51774804  0.50029051  0.04877398     1.49700
Zn520      Zn  0.52893761  0.47314349  0.97166113     1.49400
Zn521      Zn  0.45251105  0.48391876  0.00063532     1.49100
Zn522      Zn  0.50038691  0.54929397  0.98430675     1.49500
O523        O  0.49984956  0.50172054  0.00139416    -1.80300
O524        O  0.55957143  0.46955186  0.05240141    -0.70900
O525        O  0.50139515  0.43553723  0.94909175    -0.70800
O526        O  0.43657717  0.47083658  0.04850397    -0.70300
O527        O  0.56686800  0.45062999  0.99877391    -0.71000
O528        O  0.48180816  0.48212479  0.08168704    -0.70600
O529        O  0.44846854  0.44200745  0.97006070    -0.71100
O530        O  0.45262382  0.56482626  0.97043959    -0.70500
O531        O  0.55109338  0.50117292  0.93401561    -0.71300
O532        O  0.41966030  0.51954582  0.98209311    -0.70700
O533        O  0.53139516  0.55417930  0.94257938    -0.71200
O534        O  0.51800604  0.58165213  0.02094308    -0.71100
O535        O  0.53124668  0.54769897  0.06513968    -0.70800
C536        C  0.57577143  0.45165061  0.03025039     0.80900
C537        C  0.47010279  0.42627950  0.95113190     0.81400
C538        C  0.45108741  0.47162215  0.07783486     0.80400
C539        C  0.42342307  0.55010063  0.97111546     0.80800
C540        C  0.54960632  0.53274639  0.92578335     0.81900
C541        C  0.52951562  0.57726340  0.05128698     0.81000
Zn542      Zn  0.95187080  0.98619670  0.49650428     1.49700
Zn543      Zn  0.00381977  0.04875697  0.48214523     1.49400
Zn544      Zn  0.01648223  0.99913009  0.54705939     1.49100
Zn545      Zn  0.02891083  0.97118721  0.47065921     1.49500
O546        O  0.00016258  0.00131794  0.49914056    -1.80300
O547        O  0.92135473  0.02425540  0.47809189    -0.70900
O548        O  0.02253808  0.08016808  0.51889749    -0.70800
O549        O  0.97847677  0.98307722  0.57856071    -0.70300
O550        O  0.95743724  0.06753667  0.46828884    -0.71000
O551        O  0.93394381  0.97355772  0.54387885    -0.70600
O552        O  0.03168896  0.04588174  0.56384527    -0.71100
O553        O  0.06483162  0.94690110  0.49908994    -0.70500
O554        O  0.03538222  0.05176774  0.44089588    -0.71300
O555        O  0.05648444  0.96608393  0.55244328    -0.70700
O556        O  0.05330715  0.99795402  0.43341542    -0.71200
O557        O  0.00038523  0.93463547  0.44769753    -0.71100
O558        O  0.94680985  0.94441630  0.46554067    -0.70800
C559        C  0.92729313  0.05490328  0.46831866     0.80900
C560        C  0.03229815  0.07538398  0.54977346     0.81400
C561        C  0.94749241  0.97386826  0.57369252     0.80400
C562        C  0.07257054  0.94735191  0.53089422     0.80800
C563        C  0.05312703  0.02946802  0.42478668     0.81900
C564        C  0.96857855  0.92709339  0.44817292     0.81000
C565        C  0.34377632  0.88969502  0.44657759     0.06900
C566        C  0.32148836  0.88576968  0.47467679    -0.09200
C567        C  0.29065085  0.86755141  0.47119778     0.04400
C568        C  0.28276834  0.85224080  0.43940152    -0.07700
C569        C  0.30522858  0.85561017  0.41132745     0.06900
C570        C  0.33571280  0.87454223  0.41482389    -0.07200
H571        H  0.32779692  0.89760425  0.49914384     0.12500
H572        H  0.25946221  0.83728285  0.43654446     0.10100
H573        H  0.35303279  0.87736664  0.39308232     0.09900
C574        C  0.19404143  0.85211898  0.58697715     0.06900
C575        C  0.21682440  0.85000784  0.55901617    -0.09200
C576        C  0.20929583  0.86684104  0.52789685     0.04400
C577        C  0.17855314  0.88540107  0.52498138    -0.07700
C578        C  0.15593535  0.88808484  0.55296668     0.06900
C579        C  0.16362385  0.87136101  0.58403318    -0.07200
H580        H  0.24007523  0.83484038  0.56140619     0.12500
H581        H  0.17252360  0.89838658  0.50103039     0.10100
H582        H  0.14606855  0.87323601  0.60568918     0.09900
C583        C  0.44729429  0.34204633  0.89327028     0.06900
C584        C  0.47389897  0.31786636  0.89062068    -0.09200
C585        C  0.47053810  0.28942341  0.86868557     0.04400
C586        C  0.44030981  0.28521097  0.84963916    -0.07700
C587        C  0.41317956  0.30863459  0.85306707     0.06900
C588        C  0.41673924  0.33727213  0.87471043    -0.07200
H589        H  0.49750703  0.32160874  0.90493220     0.12500
H590        H  0.43759764  0.26320075  0.83274149     0.10100
H591        H  0.39595543  0.35571918  0.87702410     0.09900
C592        C  0.55742855  0.16345923  0.90018305     0.06900
C593        C  0.53450782  0.19078689  0.90526328    -0.09200
C594        C  0.53929701  0.22189718  0.88778787     0.04400
C595        C  0.56783762  0.22592379  0.86596431    -0.07700
C596        C  0.59142511  0.19901869  0.86170650     0.06900
C597        C  0.58606110  0.16764996  0.87858836    -0.07200
H598        H  0.51236097  0.18751071  0.92196998     0.12500
H599        H  0.57188244  0.25009462  0.85269329     0.10100
H600        H  0.60402093  0.14663685  0.87491799     0.09900
C601        C  0.09525434  0.19636963  0.63972572     0.06900
C602        C  0.07205408  0.22369441  0.63674818    -0.09200
C603        C  0.04165742  0.21994935  0.61783723     0.04400
C604        C  0.03508095  0.18866420  0.60102739    -0.07700
C605        C  0.05852844  0.16141299  0.60343183     0.06900
C606        C  0.08858060  0.16518396  0.62297174    -0.07200
H607        H  0.07738430  0.24777590  0.64971124     0.12500
H608        H  0.01211292  0.18562638  0.58558110     0.10100
H609        H  0.10664584  0.14406548  0.62505717     0.09900
C610        C  0.90573320  0.29950466  0.63670650     0.06900
C611        C  0.92834478  0.27163971  0.63389578    -0.09200
C612        C  0.95942536  0.27497874  0.61587505     0.04400
C613        C  0.96716315  0.30629682  0.59960153    -0.07700
C614        C  0.94424737  0.33399916  0.60179828     0.06900
C615        C  0.91358862  0.33069004  0.62054323    -0.07200
H616        H  0.92217211  0.24758518  0.64655004     0.12500
H617        H  0.99070902  0.30905284  0.58486818     0.10100
H618        H  0.89600920  0.35223214  0.62258089     0.09900
C619        C  0.69318262  0.35278063  0.08578378     0.06900
C620        C  0.71669322  0.34953049  0.05858315    -0.09200
C621        C  0.71259624  0.36891414  0.02847455     0.04400
C622        C  0.68421623  0.39096716  0.02531589    -0.07700
C623        C  0.66003945  0.39348282  0.05202051     0.06900
C624        C  0.66467555  0.37460632  0.08242939    -0.07200
H625        H  0.73862688  0.33250392  0.06113544     0.12500
H626        H  0.68054725  0.40552570  0.00179707     0.10100
H627        H  0.64617989  0.37678647  0.10326622     0.09900
C628        C  0.80187886  0.36394885  0.90636389     0.06900
C629        C  0.83289525  0.38175554  0.91070794    -0.09200
C630        C  0.83725609  0.40336336  0.93925988     0.04400
C631        C  0.81046428  0.40753152  0.96307980    -0.07700
C632        C  0.77977893  0.38914670  0.95931346     0.06900
C633        C  0.77557992  0.36731460  0.93087143    -0.07200
H634        H  0.85349875  0.37875665  0.89206804     0.12500
H635        H  0.81387498  0.42426777  0.98513992     0.10100
H636        H  0.75168127  0.35339166  0.92756349     0.09900
Zn637      Zn  0.70142894  0.24809866  0.73410979     1.49700
Zn638      Zn  0.77777864  0.22089746  0.72172305     1.49400
Zn639      Zn  0.76571630  0.29834017  0.74683438     1.49100
Zn640      Zn  0.75165762  0.23536170  0.79857716     1.49500
O641        O  0.74912343  0.25074733  0.75040082    -1.80300
O642        O  0.69711787  0.21785471  0.69201166    -0.70900
O643        O  0.81426994  0.24807114  0.69732431    -0.70800
O644        O  0.72825293  0.32967948  0.72947045    -0.70300
O645        O  0.75014961  0.19764977  0.68458467    -0.71000
O646        O  0.68360798  0.29492081  0.72126184    -0.70600
O647        O  0.80604451  0.30213914  0.71405607    -0.71100
O648        O  0.76885478  0.27339657  0.82934531    -0.70500
O649        O  0.80150151  0.18482077  0.75027342    -0.71300
O650        O  0.78016783  0.31649458  0.79337334    -0.70700
O651        O  0.78399653  0.19496281  0.80397390    -0.71200
O652        O  0.70476489  0.22133855  0.81611403    -0.71100
O653        O  0.67016234  0.22971199  0.77125406    -0.70800
C654        C  0.71878604  0.19955936  0.67562930     0.80900
C655        C  0.82218262  0.27971040  0.69648693     0.81400
C656        C  0.69718059  0.32459595  0.72071957     0.80400
C657        C  0.77932561  0.30379682  0.82356000     0.80800
C658        C  0.80170969  0.17792346  0.78229660     0.81900
C659        C  0.67512350  0.22067134  0.80232996     0.81000
C660        C  0.09143415  0.80446544  0.85795440     0.06900
C661        C  0.08725315  0.83502878  0.87675735    -0.09200
C662        C  0.05883423  0.83894580  0.89883451     0.04400
C663        C  0.03510281  0.81216102  0.90243542    -0.07700
C664        C  0.03874096  0.78202706  0.88311243     0.06900
C665        C  0.06690929  0.77830210  0.86079865    -0.07200
H666        H  0.10593657  0.85552661  0.87426995     0.12500
H667        H  0.01325684  0.81510811  0.91961571     0.10100
H668        H  0.07014287  0.75471504  0.84627919     0.09900
C669        C  0.95000362  0.66069859  0.88852176     0.06900
C670        C  0.97574285  0.68557569  0.88510577    -0.09200
C671        C  0.97083067  0.71398836  0.86345551     0.04400
C672        C  0.93996708  0.71737063  0.84527992    -0.07700
C673        C  0.91368662  0.69314775  0.84947099     0.06900
C674        C  0.91876635  0.66461105  0.87093204    -0.07200
H675        H  0.99983642  0.68251416  0.89877212     0.12500
H676        H  0.93605683  0.73937239  0.82860892     0.10100
H677        H  0.89860598  0.64561819  0.87390618     0.09900
C678        C  0.89525430  0.05534855  0.83812928     0.06900
C679        C  0.89799808  0.03329917  0.80972053    -0.09200
C680        C  0.88193718  0.04166782  0.77841198     0.04400
C681        C  0.86353911  0.07248838  0.77579772    -0.07700
C682        C  0.86029028  0.09436035  0.80422309     0.06900
C683        C  0.87622418  0.08587257  0.83545181    -0.07200
H684        H  0.91305705  0.00997701  0.81193672     0.12500
H685        H  0.85110334  0.07915198  0.75173044     0.10100
H686        H  0.87389604  0.10288953  0.85744262     0.09900
C687        C  0.89444932  0.94750874  0.66052541     0.06900
C688        C  0.89744375  0.96981470  0.68871534    -0.09200
C689        C  0.88185143  0.96160101  0.72038534     0.04400
C690        C  0.86364749  0.93076370  0.72356414    -0.07700
C691        C  0.86005976  0.90873984  0.69535394     0.06900
C692        C  0.87552647  0.91701702  0.66377320    -0.07200
H693        H  0.91239421  0.99314364  0.68609278     0.12500
H694        H  0.85162170  0.92419845  0.74792705     0.10100
H695        H  0.87301371  0.89980202  0.64197524     0.09900
Zn696      Zn  0.74961225  0.73381951  0.79666627     1.49700
Zn697      Zn  0.73511083  0.79840588  0.74705888     1.49400
Zn698      Zn  0.79878061  0.74807542  0.73166645     1.49100
Zn699      Zn  0.72193635  0.72196181  0.71978478     1.49500
O700        O  0.75133215  0.75061764  0.74887275    -1.80300
O701        O  0.73344591  0.77115649  0.82900520    -0.70900
O702        O  0.77196815  0.82960668  0.72775689    -0.70800
O703        O  0.83054759  0.72900493  0.76773438    -0.70300
O704        O  0.72274551  0.81565769  0.79463237    -0.71000
O705        O  0.79657314  0.71794241  0.81263060    -0.70600
O706        O  0.81633762  0.79472803  0.71792930    -0.71100
O707        O  0.74929265  0.69868091  0.68209025    -0.70500
O708        O  0.69272938  0.80298776  0.71729324    -0.71300
O709        O  0.80269257  0.71749012  0.69006334    -0.70700
O710        O  0.68451192  0.74997971  0.69754154    -0.71200
O711        O  0.69808804  0.68568943  0.74798549    -0.71100
O712        O  0.71641352  0.69421949  0.80158527    -0.70800
C713        C  0.72354180  0.80195655  0.82437269     0.80900
C714        C  0.80270377  0.82440881  0.71766928     0.81400
C715        C  0.82602631  0.71803056  0.79825230     0.80400
C716        C  0.78089720  0.69965318  0.67358556     0.80800
C717        C  0.67592166  0.78143966  0.69937161     0.81900
C718        C  0.69804509  0.67814609  0.77985440     0.81000
Zn719      Zn  0.00152654  0.45369329  0.98061345     1.49700
Zn720      Zn  0.01535576  0.50145422  0.04674815     1.49400
Zn721      Zn  0.03147250  0.52978293  0.97068789     1.49100
Zn722      Zn  0.95366247  0.51951199  0.99503302     1.49500
O723        O  0.00055978  0.50105852  0.99830877    -1.80300
O724        O  0.01755926  0.42058913  0.01730211    -0.70900
O725        O  0.05786726  0.53059237  0.05304852    -0.70800
O726        O  0.05474262  0.50189282  0.93345339    -0.70300
O727        O  0.02684904  0.45350932  0.06323910    -0.71000
O728        O  0.03384824  0.44908774  0.93997807    -0.70600
O729        O  0.06865147  0.55041647  0.00031145    -0.71100
O730        O  0.95140835  0.56103898  0.96419648    -0.70500
O731        O  0.97792783  0.52039706  0.07767267    -0.71300
O732        O  0.00564038  0.56844184  0.94740015    -0.70700
O733        O  0.93535476  0.53322367  0.04165042    -0.71200
O734        O  0.92132419  0.48428764  0.97552626    -0.71100
O735        O  0.95425591  0.43861378  0.96517023    -0.70800
C736        C  0.02657538  0.42428910  0.04856415     0.80900
C737        C  0.07587865  0.54826579  0.03218146     0.81400
C738        C  0.05308527  0.47051753  0.92445932     0.80400
C739        C  0.97413019  0.57728214  0.94719384     0.80800
C740        C  0.94782462  0.53182817  0.07185555     0.81900
C741        C  0.92518840  0.45364075  0.96490167     0.81000
C742        C  0.39732910  0.05425749  0.66596829     0.06900
C743        C  0.40200767  0.02985027  0.69204502    -0.09200
C744        C  0.38475300  0.03330594  0.72357168     0.04400
C745        C  0.36352687  0.06192524  0.72928187    -0.07700
C746        C  0.35975502  0.08695825  0.70365549     0.06900
C747        C  0.37641632  0.08297953  0.67185561    -0.07200
H748        H  0.41835159  0.00771494  0.68751071     0.12500
H749        H  0.35052891  0.06500581  0.75383747     0.10100
H750        H  0.37314545  0.10211882  0.65183356     0.09900
C751        C  0.35197077  0.90649241  0.81086949     0.06900
C752        C  0.34784160  0.93332746  0.78720829    -0.09200
C753        C  0.36669377  0.96373301  0.79071087     0.04400
C754        C  0.38906495  0.96763419  0.81872399    -0.07700
C755        C  0.39241614  0.94141756  0.84319759     0.06900
C756        C  0.37407205  0.91062358  0.83912646    -0.07200
H757        H  0.33061616  0.93021258  0.76550542     0.12500
H758        H  0.40321341  0.99140364  0.82191566     0.10100
H759        H  0.37694978  0.89009678  0.85776783     0.09900
C760        C  0.19984224  0.63179110  0.09790331     0.06900
C761        C  0.22685087  0.62912787  0.07413667    -0.09200
C762        C  0.22246930  0.61111796  0.04319316     0.04400
C763        C  0.19089835  0.59482176  0.03670528    -0.07700
C764        C  0.16395502  0.59701986  0.06065288     0.06900
C765        C  0.16836079  0.61564428  0.09123487    -0.07200
H766        H  0.25109352  0.64181873  0.07936808     0.12500
H767        H  0.18729067  0.58013403  0.01328367     0.10100
H768        H  0.14740020  0.61772528  0.10959063     0.09900
C769        C  0.33497277  0.59882133  0.94283422     0.06900
C770        C  0.30772290  0.59580624  0.96631473    -0.09200
C771        C  0.27573293  0.61110871  0.95932288     0.04400
C772        C  0.27118327  0.62886635  0.92825682    -0.07700
C773        C  0.29847386  0.63241172  0.90492015     0.06900
C774        C  0.33041565  0.61730192  0.91215266    -0.07200
H775        H  0.31142860  0.58126964  0.98981774     0.12500
H776        H  0.24660137  0.64077114  0.92265504     0.10100
H777        H  0.35157944  0.62001665  0.89412920     0.09900
Zn778      Zn  0.21875908  0.71863791  0.77656243     1.49700
Zn779      Zn  0.24889947  0.73051363  0.70048564     1.49400
Zn780      Zn  0.23335340  0.79504508  0.75026825     1.49100
Zn781      Zn  0.29647509  0.74420960  0.76685379     1.49500
O782        O  0.24943320  0.74712209  0.74844748    -1.80300
O783        O  0.19555482  0.68260140  0.74765549    -0.70900
O784        O  0.23118234  0.76758479  0.66851405    -0.70800
O785        O  0.19126202  0.80019593  0.78056631    -0.70300
O786        O  0.21793534  0.68889266  0.69519589    -0.71000
O787        O  0.18195877  0.74718405  0.79980432    -0.70600
O788        O  0.22114504  0.81245334  0.70272375    -0.71100
O789        O  0.31267985  0.79057748  0.78423383    -0.70500
O790        O  0.29686406  0.71744287  0.68445296    -0.71300
O791        O  0.26978359  0.82590820  0.77050326    -0.70700
O792        O  0.32978094  0.72824533  0.73003624    -0.71200
O793        O  0.29931155  0.71029078  0.80627454    -0.71100
O794        O  0.24511588  0.69335299  0.81336207    -0.70800
C795        C  0.19820281  0.67344771  0.71632003     0.80900
C796        C  0.22141477  0.79847848  0.67308204     0.81400
C797        C  0.17427689  0.77893910  0.79872509     0.80400
C798        C  0.29937118  0.82045136  0.78331649     0.80800
C799        C  0.32614578  0.71831167  0.69901981     0.85100
C800        C  0.27669372  0.69238570  0.82173909     0.81000
C801        C  0.29349806  0.65260081  0.87420776    -0.09500
C802        C  0.28689582  0.67054598  0.84974987    -0.11000
C803        C  0.24668882  0.60916849  0.98401934    -0.12600
C804        C  0.25140279  0.60976584  0.01832673    -0.27800
H805        H  0.22078353  0.61039764  0.97369468     0.16400
H806        H  0.27726439  0.61233564  0.02851176     0.17000
C807        C  0.33402810  0.87462245  0.80500728    -0.09500
C808        C  0.31849485  0.84917195  0.79648726    -0.11000
C809        C  0.36227742  0.99146457  0.76520227    -0.12600
C810        C  0.38935132  0.00696608  0.75044687    -0.27800
H811        H  0.33642950  0.99752428  0.75649669     0.16400
H812        H  0.41526110  0.99827825  0.75626535     0.17000
C813        C  0.10569283  0.56596467  0.04471781    -0.09500
C814        C  0.13174652  0.58039440  0.05324092    -0.11000
C815        C  0.84015346  0.87787751  0.69946033    -0.09500
C816        C  0.82295001  0.85308466  0.70641772    -0.11000
C817        C  0.88385328  0.01885988  0.74795545    -0.12600
C818        C  0.88413079  0.98448006  0.75072436    -0.27800
H819        H  0.88162853  0.03058105  0.72266290     0.16400
H820        H  0.88254969  0.97272888  0.77605923     0.17000
C821        C  0.95634828  0.63097283  0.90964405    -0.09500
C822        C  0.96388009  0.60641451  0.92699971    -0.11000
C823        C  0.88139131  0.69850921  0.83220729    -0.09500
C824        C  0.85538588  0.70610507  0.81714507    -0.11000
C825        C  0.12119631  0.79895101  0.83640338    -0.09500
C826        C  0.14560102  0.79102548  0.81881637    -0.11000
C827        C  0.01316112  0.75439233  0.88691871    -0.12600
C828        C  0.99783229  0.74025007  0.85946108    -0.27800
H829        H  0.00483501  0.74739752  0.91273145     0.16400
H830        H  0.00336855  0.74999668  0.83380167     0.17000
C831        C  0.84012386  0.12519739  0.80073726    -0.09500
C832        C  0.82255129  0.14983004  0.79401701    -0.11000
C833        C  0.89552757  0.43534494  0.95293543    -0.09500
C834        C  0.86944730  0.42058182  0.94513565    -0.11000
C835        C  0.79651815  0.34247288  0.87665533    -0.09500
C836        C  0.78974643  0.32468826  0.85215704    -0.11000
C837        C  0.75239801  0.39290054  0.98542030    -0.12600
C838        C  0.73791903  0.36538305  0.00033020    -0.27800
H839        H  0.74621639  0.41850371  0.99474369     0.16400
H840        H  0.74700259  0.33979177  0.99374672     0.17000
C841        C  0.87499765  0.29589182  0.65706387    -0.09500
C842        C  0.85038310  0.29006203  0.67503974    -0.11000
C843        C  0.01761520  0.24937130  0.61578665    -0.12600
C844        C  0.98331739  0.24538909  0.61461433    -0.27800
H845        H  0.02832280  0.27501022  0.61829888     0.16400
H846        H  0.97237225  0.21976394  0.61593363     0.17000
C847        C  0.62129815  0.20403596  0.84031975    -0.09500
C848        C  0.64611932  0.21040682  0.82278284    -0.11000
C849        C  0.49855210  0.26411793  0.86479567    -0.12600
C850        C  0.51393957  0.24977553  0.89213680    -0.27800
H851        H  0.50446744  0.25470699  0.83908347     0.16400
H852        H  0.50531061  0.25619570  0.91800338     0.17000
C853        C  0.20214007  0.83415913  0.61844033    -0.09500
C854        C  0.21047427  0.81820130  0.64375913    -0.11000
C855        C  0.26722435  0.86504352  0.50122400    -0.12600
C856        C  0.23283313  0.86542847  0.49788187    -0.27800
H857        H  0.27852370  0.86623514  0.52675809     0.16400
H858        H  0.22160678  0.86804182  0.47241846     0.17000
C859        C  0.04368645  0.10441764  0.56949519    -0.09500
C860        C  0.05150735  0.12981173  0.58546252    -0.11000
C861        C  0.12514871  0.90843386  0.54920740    -0.09500
C862        C  0.10058370  0.92618405  0.54247175    -0.11000
C863        C  0.92726354  0.96366554  0.60295895    -0.09500
C864        C  0.91155471  0.95580177  0.62861580    -0.11000
C865        C  0.36750218  0.58288560  0.95073143    -0.09500
C866        C  0.39360678  0.56848371  0.95934706    -0.11000
C867        C  0.60509389  0.43190892  0.04085316    -0.09500
C868        C  0.63003546  0.41469075  0.04740688    -0.11000
C869        C  0.45219150  0.37215074  0.91430136    -0.09500
C870        C  0.45910573  0.39706608  0.93142488    -0.11000
C871        C  0.43212395  0.46066100  0.10766507    -0.09500
C872        C  0.41660009  0.45252876  0.13334586    -0.11000
C873        C  0.38485466  0.51747303  0.25031415    -0.12600
C874        C  0.38451159  0.48313199  0.25379667    -0.27800
H875        H  0.38336990  0.52871772  0.22475021     0.16400
H876        H  0.38217997  0.47195706  0.27934158     0.17000
C877        C  0.70614894  0.83899516  0.87873250    -0.09500
C878        C  0.71330778  0.82200240  0.85372658    -0.11000
C879        C  0.79268377  0.81638373  0.14617719    -0.09500
C880        C  0.80098786  0.83183342  0.12055299    -0.11000
C881        C  0.74953503  0.88816756  0.98796043    -0.12600
C882        C  0.76428921  0.86075495  0.00271558    -0.27800
H883        H  0.75537134  0.91380375  0.99735274     0.16400
H884        H  0.75552160  0.83508530  0.99613482     0.17000
C885        C  0.95066827  0.87239255  0.41212249    -0.09500
C886        C  0.95730674  0.89777517  0.42870465    -0.11000
C887        C  0.88021790  0.80001687  0.33484348    -0.09500
C888        C  0.85454744  0.79173503  0.31953266    -0.11000
C889        C  0.01108601  0.74737439  0.39259381    -0.12600
C890        C  0.99771137  0.76340022  0.36511792    -0.27800
H891        H  0.00062532  0.75247854  0.41808310     0.16400
H892        H  0.00531143  0.75547771  0.33934850     0.17000
C893        C  0.66407207  0.87911646  0.30106419    -0.09500
C894        C  0.67961339  0.85350479  0.29287252    -0.11000
C895        C  0.63335348  0.99975350  0.27066310    -0.12600
C896        C  0.63331325  0.99656503  0.23620626    -0.27800
H897        H  0.63124590  0.02514904  0.28207893     0.16400
H898        H  0.63165687  0.97117290  0.22473874     0.17000
C899        C  0.92683274  0.54249519  0.10039601    -0.09500
C900        C  0.90881581  0.54876675  0.12494543    -0.11000
C901        C  0.83376963  0.61772420  0.20151790    -0.09500
C902        C  0.81832258  0.64329674  0.20997016    -0.11000
C903        C  0.86296274  0.50027085  0.26576995    -0.12600
C904        C  0.86325121  0.49690751  0.23132006    -0.27800
H905        H  0.86459193  0.52572815  0.27710938     0.16400
H906        H  0.86548133  0.47148453  0.21998151     0.17000
C907        C  0.59028105  0.04746246  0.12850661    -0.09500
C908        C  0.57333050  0.04098092  0.10338513    -0.11000
C909        C  0.63180625  0.91431663  0.94969912    -0.09500
C910        C  0.60596272  0.92944205  0.95784146    -0.11000
C911        C  0.41398506  0.94707973  0.87283301    -0.09500
C912        C  0.43148534  0.95500032  0.89722274    -0.11000
C913        C  0.55081595  0.13097535  0.91662677    -0.09500
C914        C  0.54322397  0.10454766  0.93093608    -0.11000
C915        C  0.15018091  0.20749623  0.67806276    -0.09500
C916        C  0.12566411  0.20084493  0.66031954    -0.11000
C917        C  0.32259116  0.14222401  0.71714039    -0.09500
C918        C  0.33926632  0.11700039  0.71037869    -0.11000
C919        C  0.35613064  0.29413948  0.81914182    -0.09500
C920        C  0.38161829  0.30236766  0.83475273    -0.11000
C921        C  0.16105322  0.61958820  0.69863236    -0.09500
C922        C  0.17839682  0.64448865  0.70490922    -0.11000
C923        C  0.09067286  0.45184409  0.87083511    -0.09500
C924        C  0.07343786  0.45917148  0.89567554    -0.11000
C925        C  0.16744277  0.37977895  0.79879174    -0.09500
C926        C  0.18285078  0.35412109  0.79056924    -0.11000
C927        C  0.13866641  0.49731878  0.76158382    -0.12600
C928        C  0.11109563  0.51373461  0.74900255    -0.27800
H929        H  0.16385932  0.50209126  0.75037181     0.16400
H930        H  0.08544954  0.50619719  0.75721082     0.17000
C931        C  0.19963489  0.16562058  0.88134663    -0.09500
C932        C  0.20790034  0.18153034  0.85597758    -0.11000
C933        C  0.39936571  0.07209237  0.03996282    -0.09500
C934        C  0.37461865  0.08955255  0.04662194    -0.11000
C935        C  0.26711584  0.13384023  0.99672777    -0.12600
C936        C  0.23281399  0.13377665  0.00080579    -0.27800
H937        H  0.27805253  0.13221711  0.97099398     0.16400
H938        H  0.22194315  0.13153526  0.02651889     0.17000
C939        C  0.41542448  0.54870975  0.37083136    -0.09500
C940        C  0.43090911  0.54072322  0.39650024    -0.11000
C941        C  0.65887180  0.37806330  0.70442875    -0.09500
C942        C  0.67649957  0.35339440  0.71072014    -0.11000
C943        C  0.58543439  0.45201825  0.63219962    -0.09500
C944        C  0.57004158  0.45871886  0.60609612    -0.11000
C945        C  0.67649783  0.65054598  0.79140820    -0.09500
C946        C  0.65823764  0.62653884  0.79846511    -0.11000
C947        C  0.58414182  0.55215857  0.87040138    -0.09500
C948        C  0.56871685  0.54425988  0.89623242    -0.11000
C949        C  0.61245859  0.48525633  0.75327881    -0.12600
C950        C  0.61234452  0.51954119  0.74940199    -0.27800
H951        H  0.61430262  0.47438683  0.77898465     0.16400
H952        H  0.61431936  0.53042319  0.72370367     0.17000
C953        C  0.54490069  0.36794621  0.41272120    -0.09500
C954        C  0.53879510  0.39244163  0.43074381    -0.11000
C955        C  0.49808703  0.26334570  0.35696016    -0.12600
C956        C  0.48562154  0.24545081  0.38373306    -0.27800
H957        H  0.49042386  0.25673756  0.33088744     0.16400
H958        H  0.49638126  0.24950682  0.40923173     0.17000
C959        C  0.30238930  0.32841858  0.61707628    -0.09500
C960        C  0.29498373  0.31329594  0.64317904    -0.11000
C961        C  0.37009074  0.41021834  0.54736635    -0.09500
C962        C  0.39484824  0.42781047  0.54112601    -0.11000
C963        C  0.26370494  0.35845380  0.49987824    -0.12600
C964        C  0.24782344  0.38583473  0.48619687    -0.27800
H965        H  0.25556407  0.33274299  0.49269107     0.16400
H966        H  0.25317381  0.41130925  0.49630010     0.17000
C967        C  0.37455087  0.90979878  0.45090781    -0.09500
C968        C  0.39909118  0.92728922  0.45813383    -0.11000
C969        C  0.42791951  0.04249811  0.60630048    -0.09500
C970        C  0.41361713  0.04918029  0.63304959    -0.11000
C971        C  0.57553718  0.95711764  0.40442180    -0.09500
C972        C  0.59297135  0.94980236  0.37976099    -0.11000
C973        C  0.45636915  0.10221499  0.42744785    -0.09500
C974        C  0.44864463  0.12748608  0.41119830    -0.11000
C975        C  0.35618592  0.70807777  0.67985000    -0.09500
C976        C  0.38223707  0.70059923  0.66455198    -0.11000
C977        C  0.46133082  0.60145601  0.57330013    -0.09500
C978        C  0.45496722  0.62616316  0.59098882    -0.11000
C979        C  0.61957430  0.80053176  0.66668630    -0.09500
C980        C  0.64582967  0.79265364  0.68118064    -0.11000
C981        C  0.54672626  0.87782273  0.59716836    -0.09500
C982        C  0.53997977  0.90250430  0.57967402    -0.11000
C983        C  0.49892543  0.76807185  0.63819058    -0.12600
C984        C  0.50304969  0.73379868  0.63721120    -0.27800
H985        H  0.47319553  0.77883892  0.63663174     0.16400
H986        H  0.52877941  0.72311983  0.63499146     0.17000
C987        C  0.28923186  0.17780635  0.14305006    -0.09500
C988        C  0.29769276  0.16213828  0.11759696    -0.11000
C989        C  0.34264448  0.37542621  0.20214938    -0.09500
C990        C  0.32480418  0.35075205  0.20778525    -0.11000
C991        C  0.37712456  0.19979741  0.33480533    -0.09500
C992        C  0.35198893  0.20692928  0.31809865    -0.11000
C993        C  0.20282757  0.33906804  0.37611602    -0.09500
C994        C  0.20942864  0.32245991  0.35066409    -0.11000
C995        C  0.21095069  0.67033427  0.15278714    -0.09500
C996        C  0.20457918  0.65213840  0.12849391    -0.11000
C997        C  0.12044188  0.70265222  0.34362045    -0.09500
C998        C  0.14549274  0.70898114  0.32634745    -0.11000
C999        C  0.32377973  0.64965369  0.29515912    -0.09500
C1000       C  0.34155719  0.62504800  0.30137225    -0.11000
C1001       C  0.28807396  0.82331533  0.35395663    -0.09500
C1002       C  0.29681891  0.83895823  0.37928912    -0.11000
C1003       C  0.17072779  0.84652452  0.20790430    -0.09500
C1004       C  0.15308831  0.87118481  0.20142914    -0.11000
C1005       C  0.07311184  0.04001198  0.39551919    -0.09500
C1006       C  0.08883436  0.04765626  0.36983075    -0.11000
C1007       C  0.17618471  0.14864788  0.28903827    -0.09500
C1008       C  0.15955900  0.12356465  0.29635115    -0.11000
C1009       C  0.11620369  0.01459894  0.24898214    -0.12600
C1010       C  0.11463979  0.98032563  0.25277965    -0.27800
H1011       H  0.11827249  0.02545298  0.22328097     0.16400
H1012       H  0.11633930  0.96918056  0.27836811     0.17000
C1013       C  0.54824320  0.63240688  0.08619083    -0.09500
C1014       C  0.54053679  0.60675435  0.07056717    -0.11000
C1015       C  0.64390240  0.71027083  0.18127922    -0.09500
C1016       C  0.61876787  0.70387541  0.16424665    -0.11000
C1017       C  0.45239802  0.87306913  0.09150942    -0.09500
C1018       C  0.46021226  0.89746787  0.07394505    -0.11000
C1019       C  0.35069914  0.79537122  0.18218547    -0.09500
C1020       C  0.37674327  0.80361730  0.16733170    -0.11000
C1021       C  0.49451557  0.76380158  0.14174657    -0.12600
C1022       C  0.51086093  0.75010087  0.11454554    -0.27800
H1023       H  0.49921857  0.75357637  0.16736451     0.16400
H1024       H  0.50340133  0.75747445  0.08861304     0.17000
C1025       C  0.04088036  0.60265754  0.43266393    -0.09500
C1026       C  0.04870797  0.62900939  0.41833321    -0.11000
C1027       C  0.06531228  0.53965618  0.60547520    -0.09500
C1028       C  0.08067837  0.54823805  0.63098411    -0.11000
C1029       C  0.12983068  0.41371447  0.44907846    -0.09500
C1030       C  0.10389191  0.42881047  0.45709334    -0.11000
C1031       C  0.92573666  0.45614882  0.39725292    -0.09500
C1032       C  0.90780698  0.44960149  0.37280328    -0.11000
C1033       C  0.95233768  0.36567327  0.58451318    -0.09500
C1034       C  0.96012201  0.39137999  0.56907440    -0.11000
C1035       C  0.70223415  0.65892311  0.37922234    -0.09500
C1036       C  0.70908656  0.67697235  0.35490255    -0.11000
C1037       C  0.63047095  0.57980278  0.44845631    -0.09500
C1038       C  0.60469253  0.56471589  0.45677959    -0.11000
C1039       C  0.80021017  0.66461679  0.61864276    -0.09500
C1040       C  0.79221644  0.68034196  0.64419209    -0.11000
C1041       C  0.86934723  0.58438178  0.54793766    -0.09500
C1042       C  0.89398834  0.56690386  0.54089005    -0.11000
C1043       C  0.76211199  0.63482405  0.50157616    -0.12600
C1044       C  0.74792717  0.60736569  0.48639439    -0.27800
H1045       H  0.75265779  0.66039962  0.49552243     0.16400
H1046       H  0.75443119  0.58169017  0.49524740     0.17000
C1047       C  0.67710602  0.14361386  0.21375851    -0.09500
C1048       C  0.66183862  0.11772330  0.20626064    -0.11000
C1049       C  0.69897732  0.33401464  0.11721843    -0.09500
C1050       C  0.70604719  0.31810636  0.14291110    -0.11000
C1051       C  0.64199672  0.29413430  0.31576744    -0.09500
C1052       C  0.61583449  0.30186298  0.33056511    -0.11000
C1053       C  0.81848719  0.35408958  0.28817917    -0.09500
C1054       C  0.83419152  0.37951759  0.29637923    -0.11000
C1055       C  0.70785653  0.18118483  0.64551101    -0.09500
C1056       C  0.70014705  0.16678468  0.61911850    -0.11000
C1057       C  0.62365777  0.09672879  0.54625871    -0.09500
C1058       C  0.59897357  0.07896556  0.54042085    -0.11000
C1059       C  0.87459784  0.09450400  0.45176571    -0.09500
C1060       C  0.89895178  0.07628360  0.45799480    -0.11000
C1061       C  0.79110752  0.18418913  0.35521462    -0.09500
C1062       C  0.79958609  0.16927666  0.38112228    -0.11000
C1063       C  0.73252927  0.14013414  0.49765548    -0.12600
C1064       C  0.76686414  0.13946897  0.50162603    -0.27800
H1065       H  0.72172730  0.13892717  0.47190547     0.16400
H1066       H  0.77758674  0.13687587  0.52730715     0.17000
C1067       C  0.84818070  0.20861876  0.17472443    -0.09500
C1068       C  0.87292973  0.20233333  0.15707870    -0.11000
C1069       C  0.04482172  0.36884600  0.08333912    -0.09500
C1070       C  0.03673818  0.39446721  0.06783602    -0.11000
C1071       C  0.12324580  0.30038923  0.15623083    -0.09500
C1072       C  0.14812766  0.29411911  0.17363944    -0.11000
C1073       C  0.01580647  0.24812044  0.11416420    -0.12600
C1074       C  0.98140912  0.25151057  0.11416723    -0.27800
H1075       H  0.02714539  0.22270118  0.11632399     0.16400
H1076       H  0.97013466  0.27699910  0.11580517     0.17000
C1077       C  0.12462027  0.09084687  0.95205008    -0.09500
C1078       C  0.10015336  0.07318391  0.95908118    -0.11000
C1079       C  0.06727580  0.96006631  0.10665892    -0.09500
C1080       C  0.08240443  0.95118956  0.13226871    -0.11000
C1081       C  0.95678425  0.10523052  0.06943762    -0.09500
C1082       C  0.94936247  0.13109182  0.08485307    -0.11000
C1083       C  0.87074969  0.91157467  0.04998349    -0.09500
C1084       C  0.89536304  0.92897911  0.04278474    -0.11000
C1085       C  0.92791360  0.03797745  0.89528466    -0.09500
C1086       C  0.91244287  0.04650306  0.86976495    -0.11000
C1087       C  0.04461993  0.89600666  0.93304183    -0.09500
C1088       C  0.05292399  0.87055400  0.91730166    -0.11000
loop_ 
_geom_bond_atom_site_label_1 
_geom_bond_atom_site_label_2 
_geom_bond_distance 
_geom_bond_site_symmetry_2 
_ccdc_geom_bond_type 
Zn1           O5   1.964   1_556  S
Zn1           O6   2.016       .  S
Zn1          O10   2.012   1_655  S
Zn1          O17   2.013   1_556  S
Zn2           O5   1.961   1_566  S
Zn2           O7   2.023   1_655  S
Zn2           O9   2.025       .  S
Zn2          O13   2.018   1_556  S
Zn3           O5   1.968   1_466  S
Zn3           O8   2.022   1_565  S
Zn3          O11   2.024       .  S
Zn3          O14   2.025   1_556  S
Zn4           O5   1.968   1_565  S
Zn4          O12   2.017   1_655  S
Zn4          O15   2.018       .  S
Zn4          O16   2.021   1_565  S
O6           C18   1.271       .  A
O7           C19   1.273       .  A
O8           C20   1.273       .  A
O9           C18   1.273   1_565  A
O10          C20   1.271       .  A
O11          C19   1.272       .  A
O12          C21   1.272       .  A
O13          C22   1.272       .  A
O14          C21   1.273       .  A
O15          C22   1.272       .  A
O16          C23   1.272       .  A
O17          C23   1.271       .  A
C18        C1085   1.437       .  S
C19        C1087   1.438       .  S
C20        C1078   1.434       .  S
C21        C1079   1.437       .  S
C22        C1084   1.435       .  S
C23        C1081   1.435       .  S
C24        C1069   1.442       .  S
C24          C25   1.401       .  A
C24          C29   1.403       .  A
C25          C26   1.407       .  A
C25          H30   1.084       .  S
C26          C27   1.402       .  A
C26        C1073   1.482       .  S
C27          C28   1.401       .  A
C27          H31   1.085       .  S
C28        C1071   1.441       .  S
C28          C29   1.402       .  A
C29          H32   1.084       .  S
C33        C1068   1.438       .  S
C33          C34   1.400       .  A
C33          C38   1.399       .  A
C34          C35   1.401       .  A
C34          H39   1.084       .  S
C35        C1082   1.440       .  S
C35          C36   1.403       .  A
C36          C37   1.407       .  A
C36          H40   1.084       .  S
C37          C38   1.401       .  A
C37        C1074   1.481       .  S
C38          H41   1.085       .  S
C42        C1059   1.443       .  S
C42          C43   1.400       .  A
C42          C47   1.403       .  A
C43          C44   1.402       .  A
C43          H48   1.084       .  S
C44          C45   1.407       .  A
C44        C1064   1.482       .  S
C45          C46   1.402       .  A
C45          H49   1.084       .  S
C46        C1062   1.443       .  S
C46          C47   1.404       .  A
C47          H50   1.084       .  S
C51        C1056   1.441       .  S
C51          C52   1.402       .  A
C51          C56   1.403       .  A
C52          C53   1.401       .  A
C52          H57   1.084       .  S
C53        C1057   1.440       .  S
C53          C54   1.400       .  A
C54          C55   1.402       .  A
C54          H58   1.084       .  S
C55          C56   1.407       .  A
C55        C1063   1.482       .  S
C56          H59   1.084       .  S
Zn60         O64   1.960       .  S
Zn60         O65   2.020       .  S
Zn60         O69   2.016       .  S
Zn60         O76   2.022       .  S
Zn61         O64   1.965       .  S
Zn61         O66   2.018       .  S
Zn61         O68   2.018       .  S
Zn61         O72   2.013       .  S
Zn62         O64   1.965       .  S
Zn62         O67   2.017       .  S
Zn62         O70   2.021       .  S
Zn62         O73   2.019       .  S
Zn63         O64   1.966       .  S
Zn63         O71   2.024       .  S
Zn63         O74   2.018       .  S
Zn63         O75   2.025       .  S
O65          C77   1.272       .  A
O66          C78   1.272       .  A
O67          C79   1.272       .  A
O68          C77   1.272       .  A
O69          C79   1.272       .  A
O70          C78   1.272       .  A
O71          C80   1.272       .  A
O72          C81   1.271       .  A
O73          C80   1.272       .  A
O74          C81   1.273       .  A
O75          C82   1.273       .  A
O76          C82   1.273       .  A
C77        C1047   1.436       .  S
C78        C1050   1.436       .  S
C79        C1051   1.434       .  S
C80        C1053   1.437       .  S
C81        C1067   1.433       .  S
C82        C1061   1.439       .  S
C83        C1041   1.439       .  S
C83          C84   1.403       .  A
C83          C88   1.400       .  A
C84          C85   1.403       .  A
C84          H89   1.084       .  S
C85        C1039   1.439       .  S
C85          C86   1.400       .  A
C86          C87   1.399       .  A
C86          H90   1.085       .  S
C87          C88   1.403       .  A
C87        C1043   1.474       .  S
C88          H91   1.085       .  S
C92        C1035   1.441       .  S
C92          C93   1.403       .  A
C92          C97   1.401       .  A
C93          C94   1.403       .  A
C93          H98   1.084       .  S
C94        C1037   1.440       .  S
C94          C95   1.400       .  A
C95          C96   1.399       .  A
C95          H99   1.085       .  S
C96          C97   1.403       .  A
C96        C1044   1.473       .  S
C97         H100   1.085       .  S
Zn101       O105   1.964   1_455  S
Zn101       O106   2.018       .  S
Zn101       O110   2.019       .  S
Zn101       O117   2.019       .  S
Zn102       O105   1.967       .  S
Zn102       O107   2.016       .  S
Zn102       O109   2.026   1_655  S
Zn102       O113   2.026       .  S
Zn103       O105   1.967       .  S
Zn103       O108   2.014   1_655  S
Zn103       O111   2.017       .  S
Zn103       O114   2.019       .  S
Zn104       O105   1.957       .  S
Zn104       O112   2.014       .  S
Zn104       O115   2.015       .  S
Zn104       O116   2.018       .  S
O106        C118   1.272       .  A
O107        C119   1.272       .  A
O108        C120   1.271       .  A
O109        C118   1.273       .  A
O110        C120   1.272       .  A
O111        C119   1.272       .  A
O112        C121   1.271       .  A
O113        C122   1.273       .  A
O114        C121   1.271       .  A
O115        C122   1.272       .  A
O116        C123   1.272   1_655  A
O117        C123   1.272       .  A
C118       C1030   1.437       .  S
C119       C1034   1.434       .  S
C120       C1027   1.434       .  S
C121       C1042   1.435       .  S
C122       C1031   1.436       .  S
C123       C1025   1.436       .  S
C124       C1020   1.443       .  S
C124        C125   1.401       .  A
C124        C129   1.405       .  A
C125        C126   1.401       .  A
C125        H130   1.085       .  S
C126        C127   1.404       .  A
C126       C1021   1.477       .  S
C127        C128   1.401       .  A
C127        H131   1.084       .  S
C128       C1017   1.443       .  S
C128        C129   1.405       .  A
C129        H132   1.084       .  S
C133       C1016   1.443       .  S
C133        C134   1.402       .  A
C133        C138   1.404       .  A
C134        C135   1.403       .  A
C134        H139   1.084       .  S
C135        C136   1.400       .  A
C135       C1022   1.475       .  S
C136        C137   1.400       .  A
C136        H140   1.085       .  S
C137       C1013   1.442       .  S
C137        C138   1.404       .  A
C138        H141   1.084       .  S
C142       C1008   1.439       .  S
C142        C143   1.400       .  A
C142        C147   1.401       .  A
C143        C144   1.401       .  A
C143        H148   1.085       .  S
C144        C145   1.406       .  A
C144       C1009   1.481       .  S
C145        C146   1.401       .  A
C145        H149   1.084       .  S
C146       C1006   1.440       .  S
C146        C147   1.402       .  A
C147        H150   1.084       .  S
C151       C1080   1.442       .  S
C151        C152   1.403       .  A
C151        C156   1.401       .  A
C152        C153   1.402       .  A
C152        H157   1.084       .  S
C153       C1004   1.441       .  S
C153        C154   1.400       .  A
C154        C155   1.401       .  A
C154        H158   1.085       .  S
C155        C156   1.406       .  A
C155       C1010   1.481       .  S
C156        H159   1.084       .  S
Zn160       O164   1.968       .  S
Zn160       O165   2.026       .  S
Zn160       O169   2.026       .  S
Zn160       O176   2.017       .  S
Zn161       O164   1.958       .  S
Zn161       O166   2.016       .  S
Zn161       O168   2.010       .  S
Zn161       O172   2.021       .  S
Zn162       O164   1.967       .  S
Zn162       O167   2.017       .  S
Zn162       O170   2.021       .  S
Zn162       O173   2.022       .  S
Zn163       O164   1.967       .  S
Zn163       O171   2.020       .  S
Zn163       O174   2.025       .  S
Zn163       O175   2.023       .  S
O165        C177   1.272       .  A
O166        C178   1.272       .  A
O167        C179   1.272       .  A
O168        C177   1.271       .  A
O169        C179   1.273       .  A
O170        C178   1.272       .  A
O171        C180   1.273       .  A
O172        C181   1.272       .  A
O173        C180   1.272       .  A
O174        C181   1.272       .  A
O175        C182   1.272       .  A
O176        C182   1.272       .  A
C177        C999   1.435       .  S
C178        C995   1.435       .  S
C179        C998   1.437       .  S
C180       C1003   1.436       .  S
C181       C1019   1.439       .  S
C182       C1001   1.436       .  S
Zn183       O187   1.958       .  S
Zn183       O188   2.020       .  S
Zn183       O192   2.013       .  S
Zn183       O199   2.015       .  S
Zn184       O187   1.965       .  S
Zn184       O189   2.014       .  S
Zn184       O191   2.016       .  S
Zn184       O195   2.015       .  S
Zn185       O187   1.970       .  S
Zn185       O190   2.030       .  S
Zn185       O193   2.020       .  S
Zn185       O196   2.030       .  S
Zn186       O187   1.966       .  S
Zn186       O194   2.018       .  S
Zn186       O197   2.024       .  S
Zn186       O198   2.019       .  S
O188        C200   1.272       .  A
O189        C201   1.271       .  A
O190        C202   1.273       .  A
O191        C200   1.271       .  A
O192        C202   1.272       .  A
O193        C201   1.273       .  A
O194        C203   1.272       .  A
O195        C204   1.271       .  A
O196        C203   1.273       .  A
O197        C204   1.272       .  A
O198        C205   1.272       .  A
O199        C205   1.272       .  A
C200        C987   1.435       .  S
C201        C990   1.434       .  S
C202       C1072   1.436       .  S
C203        C994   1.438       .  S
C204        C992   1.437       .  S
C205       C1007   1.434       .  S
C206        C981   1.440       .  S
C206        C207   1.401       .  A
C206        C211   1.400       .  A
C207        C208   1.402       .  A
C207        H212   1.084       .  S
C208        C979   1.441       .  S
C208        C209   1.403       .  A
C209        C210   1.407       .  A
C209        H213   1.084       .  S
C210        C211   1.402       .  A
C210        C983   1.482       .  S
C211        H214   1.085       .  S
C215        C976   1.444       .  S
C215        C216   1.402       .  A
C215        C220   1.403       .  A
C216        C217   1.407       .  A
C216        H221   1.084       .  S
C217        C218   1.402       .  A
C217        C984   1.483       .  S
C218        C219   1.400       .  A
C218        H222   1.085       .  S
C219        C978   1.442       .  S
C219        C220   1.403       .  A
C220        H223   1.084       .  S
Zn224       O228   1.967   1_565  S
Zn224       O229   2.017       .  S
Zn224       O233   2.022       .  S
Zn224       O240   2.017   1_565  S
Zn225       O228   1.967   1_565  S
Zn225       O230   2.025       .  S
Zn225       O232   2.018       .  S
Zn225       O236   2.028   1_565  S
Zn226       O228   1.956   1_565  S
Zn226       O231   2.014       .  S
Zn226       O234   2.017       .  S
Zn226       O237   2.012   1_565  S
Zn227       O228   1.965       .  S
Zn227       O235   2.018       .  S
Zn227       O238   2.017       .  S
Zn227       O239   2.018       .  S
O229        C241   1.272       .  A
O230        C242   1.272       .  A
O231        C243   1.271       .  A
O232        C241   1.273       .  A
O233        C243   1.272       .  A
O234        C242   1.272       .  A
O235        C244   1.272       .  A
O236        C245   1.273       .  A
O237        C244   1.272       .  A
O238        C245   1.272       .  A
O239        C246   1.272       .  A
O240        C246   1.272       .  A
C241        C971   1.435       .  S
C242        C968   1.437       .  S
C243        C982   1.435       .  S
C244        C969   1.433       .  S
C245        C973   1.437       .  S
C246       C1058   1.435       .  S
C247        C961   1.441       .  S
C247        C248   1.402       .  A
C247        C252   1.402       .  A
C248        C249   1.402       .  A
C248        H253   1.084       .  S
C249        C959   1.441       .  S
C249        C250   1.401       .  A
C250        C251   1.401       .  A
C250        H254   1.085       .  S
C251        C252   1.404       .  A
C251        C963   1.477       .  S
C252        H255   1.084       .  S
C256        C993   1.443       .  S
C256        C257   1.403       .  A
C256        C261   1.403       .  A
C257        C258   1.404       .  A
C257        H262   1.084       .  S
C258        C259   1.401       .  A
C258        C964   1.477       .  S
C259        C260   1.401       .  A
C259        H263   1.085       .  S
C260       C1029   1.442       .  S
C260        C261   1.403       .  A
C261        H264   1.084       .  S
C265        C953   1.440       .  S
C265        C266   1.402       .  A
C265        C270   1.402       .  A
C266        C267   1.404       .  A
C266        H271   1.084       .  S
C267        C268   1.400       .  A
C267        C955   1.475       .  S
C268        C269   1.400       .  A
C268        H272   1.085       .  S
C269       C1052   1.438       .  S
C269        C270   1.401       .  A
C270        H273   1.084       .  S
C274        C991   1.441       .  S
C274        C275   1.404       .  A
C274        C279   1.402       .  A
C275        C276   1.403       .  A
C275        H280   1.084       .  S
C276        C974   1.442       .  S
C276        C277   1.400       .  A
C277        C278   1.401       .  A
C277        H281   1.085       .  S
C278        C279   1.404       .  A
C278        C956   1.477       .  S
C279        H282   1.084       .  S
C283        C947   1.442       .  S
C283        C284   1.403       .  A
C283        C288   1.403       .  A
C284        C285   1.402       .  A
C284        H289   1.084       .  S
C285        C946   1.439       .  S
C285        C286   1.399       .  A
C286        C287   1.401       .  A
C286        H290   1.085       .  S
C287        C288   1.407       .  A
C287        C950   1.482       .  S
C288        H291   1.084       .  S
C292        C941   1.438       .  S
C292        C293   1.399       .  A
C292        C297   1.401       .  A
C293        C294   1.401       .  A
C293        H298   1.085       .  S
C294        C295   1.408       .  A
C294        C949   1.482       .  S
C295        C296   1.403       .  A
C295        H299   1.084       .  S
C296        C943   1.441       .  S
C296        C297   1.402       .  A
C297        H300   1.084       .  S
Zn301       O305   1.969       .  S
Zn301       O306   2.017       .  S
Zn301       O310   2.026       .  S
Zn301       O317   2.026       .  S
Zn302       O305   1.968       .  S
Zn302       O307   2.026       .  S
Zn302       O309   2.022       .  S
Zn302       O313   2.025       .  S
Zn303       O305   1.956       .  S
Zn303       O308   2.009       .  S
Zn303       O311   2.012       .  S
Zn303       O314   2.010       .  S
Zn304       O305   1.965       .  S
Zn304       O312   2.026       .  S
Zn304       O315   2.017       .  S
Zn304       O316   2.015       .  S
O306        C318   1.272       .  A
O307        C319   1.273       .  A
O308        C320   1.271       .  A
O309        C318   1.272       .  A
O310        C320   1.273       .  A
O311        C319   1.271       .  A
O312        C321   1.273       .  A
O313        C322   1.273       .  A
O314        C321   1.271       .  A
O315        C322   1.272       .  A
O316        C323   1.272       .  A
O317        C323   1.273       .  A
C318       C1038   1.435       .  S
C319        C940   1.436       .  S
C320        C954   1.435       .  S
C321        C962   1.436       .  S
C322        C977   1.437       .  S
C323        C944   1.437       .  S
C324        C988   1.440       .  S
C324        C325   1.400       .  A
C324        C329   1.403       .  A
C325        C326   1.405       .  A
C325        H330   1.084       .  S
C326        C327   1.400       .  A
C326        C935   1.479   1_554  S
C327        C328   1.400       .  A
C327        H331   1.085   1_554  S
C328        C934   1.439       .  S
C328        C329   1.402       .  A
C329        H332   1.084       .  S
C333        C931   1.441       .  S
C333        C334   1.403       .  A
C333        C338   1.402       .  A
C334        C335   1.403       .  A
C334        H339   1.084       .  S
C335       C1077   1.439       .  S
C335        C336   1.398       .  A
C336        C337   1.400       .  A
C336        H340   1.085       .  S
C337        C338   1.405       .  A
C337        C936   1.478   1_556  S
C338        H341   1.084       .  S
C342        C923   1.441       .  S
C342        C343   1.401       .  A
C342        C347   1.404       .  A
C343        C344   1.403       .  A
C343        H348   1.084       .  S
C344        C345   1.400       .  A
C344        C927   1.476       .  S
C345        C346   1.400       .  A
C345        H349   1.085       .  S
C346        C925   1.441       .  S
C346        C347   1.404       .  A
C347        H350   1.084       .  S
C351        C921   1.441       .  S
C351        C352   1.403       .  A
C351        C356   1.402       .  A
C352        C353   1.403       .  A
C352        H357   1.084       .  S
C353       C1028   1.439       .  S
C353        C354   1.399       .  A
C354        C355   1.399       .  A
C354        H358   1.085       .  S
C355        C356   1.403       .  A
C355        C928   1.473       .  S
C356        H359   1.084       .  S
Zn360       O364   1.966       .  S
Zn360       O365   2.024       .  S
Zn360       O369   2.021       .  S
Zn360       O376   2.020       .  S
Zn361       O364   1.965       .  S
Zn361       O366   2.015       .  S
Zn361       O368   2.016       .  S
Zn361       O372   2.015       .  S
Zn362       O364   1.959       .  S
Zn362       O367   2.019       .  S
Zn362       O370   2.015       .  S
Zn362       O373   2.016       .  S
Zn363       O364   1.967       .  S
Zn363       O371   2.025       .  S
Zn363       O374   2.024       .  S
Zn363       O375   2.024       .  S
O365        C377   1.273       .  A
O366        C378   1.271       .  A
O367        C379   1.272       .  A
O368        C377   1.272       .  A
O369        C379   1.272       .  A
O370        C378   1.271       .  A
O371        C380   1.272       .  A
O372        C381   1.271       .  A
O373        C380   1.272       .  A
O374        C381   1.273       .  A
O375        C382   1.273       .  A
O376        C382   1.273       .  A
C377        C960   1.436       .  S
C378        C917   1.433       .  S
C379        C919   1.437       .  S
C380        C932   1.436       .  S
C381        C915   1.436       .  S
C382        C926   1.437       .  S
Zn383       O387   1.959   1_546  S
Zn383       O388   2.021   1_545  S
Zn383       O392   2.019       .  S
Zn383       O399   2.015       .  S
Zn384       O387   1.969   1_556  S
Zn384       O389   2.024       .  S
Zn384       O391   2.026       .  S
Zn384       O395   2.027   1_556  S
Zn385       O387   1.965   1_546  S
Zn385       O390   2.018       .  S
Zn385       O393   2.013   1_545  S
Zn385       O396   2.016   1_556  S
Zn386       O387   1.968   1_545  S
Zn386       O394   2.018       .  S
Zn386       O397   2.024   1_545  S
Zn386       O398   2.017       .  S
O388        C400   1.273       .  A
O389        C401   1.273       .  A
O390        C402   1.271       .  A
O391        C400   1.273       .  A
O392        C402   1.272       .  A
O393        C401   1.272       .  A
O394        C403   1.272       .  A
O395        C404   1.273       .  A
O396        C403   1.271       .  A
O397        C404   1.273       .  A
O398        C405   1.272       .  A
O399        C405   1.272   1_556  A
C400        C912   1.438       .  S
C401        C910   1.435       .  S
C402        C914   1.436       .  S
C403        C908   1.434       .  S
C404       C1018   1.439       .  S
C405        C933   1.434       .  S
C406       C1032   1.441       .  S
C406        C407   1.400       .  A
C406        C411   1.403       .  A
C407        C408   1.401       .  A
C407        H412   1.085       .  S
C408        C409   1.406       .  A
C408        C903   1.480       .  S
C409        C410   1.402       .  A
C409        H413   1.084       .  S
C410       C1054   1.442       .  S
C410        C411   1.404       .  A
C411        H414   1.084       .  S
C415        C901   1.442       .  S
C415        C416   1.402       .  A
C415        C420   1.403       .  A
C416        C417   1.406       .  A
C416        H421   1.084       .  S
C417        C418   1.401       .  A
C417        C904   1.481       .  S
C418        C419   1.400       .  A
C418        H422   1.085       .  S
C419        C900   1.440       .  S
C419        C420   1.403       .  A
C420        H423   1.084       .  S
C424        C907   1.439       .  S
C424        C425   1.401       .  A
C424        C429   1.399       .  A
C425        C426   1.402       .  A
C425        H430   1.084       .  S
C426       C1048   1.441       .  S
C426        C427   1.402       .  A
C427        C428   1.407       .  A
C427        H431   1.084       .  S
C428        C429   1.401       .  A
C428        C896   1.481   1_545  S
C429        H432   1.085   1_545  S
C433        C972   1.439       .  S
C433        C434   1.399       .  A
C433        C438   1.402       .  A
C434        C435   1.400       .  A
C434        H439   1.085       .  S
C435        C436   1.407       .  A
C435        C895   1.481       .  S
C436        C437   1.403       .  A
C436        H440   1.083       .  S
C437        C893   1.443       .  S
C437        C438   1.403       .  A
C438        H441   1.084       .  S
C442       C1026   1.440       .  S
C442        C443   1.402       .  A
C442        C447   1.401       .  A
C443        C444   1.402       .  A
C443        H448   1.084       .  S
C444        C997   1.441       .  S
C444        C445   1.402       .  A
C445        C446   1.405       .  A
C445        H449   1.084       .  S
C446        C447   1.401       .  A
C446        C889   1.478       .  S
C447        H450   1.085       .  S
C451        C887   1.442       .  S
C451        C452   1.400       .  A
C451        C456   1.404       .  A
C452        C453   1.400       .  A
C452        H457   1.085       .  S
C453        C454   1.404       .  A
C453        C890   1.476       .  S
C454        C455   1.403       .  A
C454        H458   1.084       .  S
C455        C885   1.443       .  S
C455        C456   1.404       .  A
C456        H459   1.084       .  S
C460        C880   1.440       .  S
C460        C461   1.400       .  A
C460        C465   1.403       .  A
C461        C462   1.400       .  A
C461        H466   1.085       .  S
C462        C463   1.402       .  A
C462        C882   1.473       .  S
C463        C464   1.400       .  A
C463        H467   1.085       .  S
C464       C1083   1.439       .  S
C464        C465   1.403       .  A
C465        H468   1.084       .  S
C469        C909   1.440       .  S
C469        C470   1.403       .  A
C469        C474   1.400       .  A
C470        C471   1.404       .  A
C470        H475   1.084       .  S
C471        C877   1.441       .  S
C471        C472   1.401       .  A
C472        C473   1.403       .  A
C472        H476   1.085       .  S
C473        C474   1.399       .  A
C473        C881   1.473       .  S
C474        H477   1.085       .  S
Zn478       O482   1.971       .  S
Zn478       O483   2.028       .  S
Zn478       O487   2.025       .  S
Zn478       O494   2.024       .  S
Zn479       O482   1.967       .  S
Zn479       O484   2.021       .  S
Zn479       O486   2.021       .  S
Zn479       O490   2.020       .  S
Zn480       O482   1.962       .  S
Zn480       O485   2.016       .  S
Zn480       O488   2.024       .  S
Zn480       O491   2.022       .  S
Zn481       O482   1.967       .  S
Zn481       O489   2.022       .  S
Zn481       O492   2.018       .  S
Zn481       O493   2.024       .  S
O483        C495   1.273       .  A
O484        C496   1.272       .  A
O485        C497   1.272       .  A
O486        C495   1.273       .  A
O487        C497   1.273       .  A
O488        C496   1.273       .  A
O489        C498   1.272       .  A
O490        C499   1.272       .  A
O491        C498   1.272       .  A
O492        C499   1.272       .  A
O493        C500   1.273       .  A
O494        C500   1.273       .  A
C495        C894   1.438       .  S
C496        C888   1.438       .  S
C497       C1036   1.436       .  S
C498        C902   1.438       .  S
C499        C879   1.436       .  S
C500       C1015   1.438       .  S
C501       C1000   1.440       .  S
C501        C502   1.400       .  A
C501        C506   1.401       .  A
C502        C503   1.401       .  A
C502        H507   1.085       .  S
C503        C504   1.406       .  A
C503        C873   1.481       .  S
C504        C505   1.402       .  A
C504        H508   1.084       .  S
C505        C939   1.441       .  S
C505        C506   1.402       .  A
C506        H509   1.084       .  S
C510        C989   1.439       .  S
C510        C511   1.401       .  A
C510        C515   1.400       .  A
C511        C512   1.402       .  A
C511        H516   1.084       .  S
C512        C872   1.441       .  S
C512        C513   1.402       .  A
C513        C514   1.407       .  A
C513        H517   1.084       .  S
C514        C515   1.401       .  A
C514        C874   1.482       .  S
C515        H518   1.085       .  S
Zn519       O523   1.969       .  S
Zn519       O524   2.024       .  S
Zn519       O528   2.020       .  S
Zn519       O535   2.023       .  S
Zn520       O523   1.960   1_556  S
Zn520       O525   2.017       .  S
Zn520       O527   2.015       .  S
Zn520       O531   2.016       .  S
Zn521       O523   1.968       .  S
Zn521       O526   2.023       .  S
Zn521       O529   2.024   1_554  S
Zn521       O532   2.019   1_554  S
Zn522       O523   1.968   1_556  S
Zn522       O530   2.027       .  S
Zn522       O533   2.026       .  S
Zn522       O534   2.022   1_556  S
O524        C536   1.272       .  A
O525        C537   1.272       .  A
O526        C538   1.273       .  A
O527        C536   1.272   1_556  A
O528        C538   1.272       .  A
O529        C537   1.272       .  A
O530        C539   1.273       .  A
O531        C540   1.272       .  A
O532        C539   1.272       .  A
O533        C540   1.273       .  A
O534        C541   1.273       .  A
O535        C541   1.273       .  A
C536        C867   1.436       .  S
C537        C870   1.437       .  S
C538        C871   1.436       .  S
C539        C866   1.438       .  S
C540        C948   1.437       .  S
C541       C1014   1.437       .  S
Zn542       O546   1.972   1_665  S
Zn542       O547   2.029   1_565  S
Zn542       O551   2.026       .  S
Zn542       O558   2.033       .  S
Zn543       O546   1.967       .  S
Zn543       O548   2.017       .  S
Zn543       O550   2.020   1_455  S
Zn543       O554   2.019       .  S
Zn544       O546   1.969   1_565  S
Zn544       O549   2.016   1_455  S
Zn544       O552   2.023   1_565  S
Zn544       O555   2.029       .  S
Zn545       O546   1.959   1_565  S
Zn545       O553   2.017       .  S
Zn545       O556   2.018       .  S
Zn545       O557   2.015       .  S
O547        C559   1.273       .  A
O548        C560   1.272       .  A
O549        C561   1.272       .  A
O550        C559   1.272       .  A
O551        C561   1.273       .  A
O552        C560   1.272       .  A
O553        C562   1.272       .  A
O554        C563   1.272       .  A
O555        C562   1.273       .  A
O556        C563   1.272   1_565  A
O557        C564   1.272   1_455  A
O558        C564   1.274       .  A
C559       C1060   1.438       .  S
C560        C859   1.436       .  S
C561        C863   1.437       .  S
C562        C862   1.438       .  S
C563       C1005   1.435       .  S
C564        C886   1.439       .  S
C565        C967   1.441       .  S
C565        C566   1.400       .  A
C565        C570   1.403       .  A
C566        C567   1.401       .  A
C566        H571   1.085       .  S
C567        C568   1.405       .  A
C567        C855   1.481       .  S
C568        C569   1.401       .  A
C568        H572   1.084       .  S
C569       C1002   1.441       .  S
C569        C570   1.404       .  A
C570        H573   1.084       .  S
C574        C853   1.443       .  S
C574        C575   1.402       .  A
C574        C579   1.405       .  A
C575        C576   1.406       .  A
C575        H580   1.084       .  S
C576        C577   1.401       .  A
C576        C856   1.481       .  S
C577        C578   1.400       .  A
C577        H581   1.085       .  S
C578        C861   1.443       .  S
C578        C579   1.404       .  A
C579        H582   1.084       .  S
C583        C869   1.442       .  S
C583        C584   1.402       .  A
C583        C588   1.404       .  A
C584        C585   1.403       .  A
C584        H589   1.084       .  S
C585        C586   1.400       .  A
C585        C849   1.476       .  S
C586        C587   1.400       .  A
C586        H590   1.085       .  S
C587        C920   1.441       .  S
C587        C588   1.403       .  A
C588        H591   1.084       .  S
C592        C913   1.440       .  S
C592        C593   1.401       .  A
C592        C597   1.402       .  A
C593        C594   1.401       .  A
C593        H598   1.084       .  S
C594        C595   1.404       .  A
C594        C850   1.475       .  S
C595        C596   1.401       .  A
C595        H599   1.084       .  S
C596        C847   1.440       .  S
C596        C597   1.402       .  A
C597        H600   1.084       .  S
C601        C916   1.440       .  S
C601        C602   1.399       .  A
C601        C606   1.402       .  A
C602        C603   1.401       .  A
C602        H607   1.085       .  S
C603        C604   1.406       .  A
C603        C843   1.480       .  S
C604        C605   1.402       .  A
C604        H608   1.084       .  S
C605        C860   1.441       .  S
C605        C606   1.403       .  A
C606        H609   1.084       .  S
C610        C841   1.438       .  S
C610        C611   1.400       .  A
C610        C615   1.401       .  A
C611        C612   1.401       .  A
C611        H616   1.085       .  S
C612        C613   1.406       .  A
C612        C844   1.480       .  S
C613        C614   1.401       .  A
C613        H617   1.084       .  S
C614       C1033   1.439       .  S
C614        C615   1.401       .  A
C615        H618   1.084       .  S
C619       C1049   1.441       .  S
C619        C620   1.401       .  A
C619        C624   1.403       .  A
C620        C621   1.401       .  A
C620        H625   1.085       .  S
C621        C622   1.403       .  A
C621        C838   1.475       .  S
C622        C623   1.401       .  A
C622        H626   1.084       .  S
C623        C868   1.440       .  S
C623        C624   1.403       .  A
C624        H627   1.084       .  S
C628        C835   1.440       .  S
C628        C629   1.403       .  A
C628        C633   1.401       .  A
C629        C630   1.402       .  A
C629        H634   1.084       .  S
C630        C834   1.440       .  S
C630        C631   1.401       .  A
C631        C632   1.400       .  A
C631        H635   1.085       .  S
C632        C633   1.403       .  A
C632        C837   1.475       .  S
C633        H636   1.084       .  S
Zn637       O641   1.964       .  S
Zn637       O642   2.022       .  S
Zn637       O646   2.013       .  S
Zn637       O653   2.016       .  S
Zn638       O641   1.955       .  S
Zn638       O643   2.007       .  S
Zn638       O645   2.016       .  S
Zn638       O649   2.014       .  S
Zn639       O641   1.968       .  S
Zn639       O644   2.017       .  S
Zn639       O647   2.023       .  S
Zn639       O650   2.021       .  S
Zn640       O641   1.967       .  S
Zn640       O648   2.018       .  S
Zn640       O651   2.024       .  S
Zn640       O652   2.021       .  S
O642        C654   1.272       .  A
O643        C655   1.271       .  A
O644        C656   1.272       .  A
O645        C654   1.271       .  A
O646        C656   1.271       .  A
O647        C655   1.272       .  A
O648        C657   1.272       .  A
O649        C658   1.272       .  A
O650        C657   1.272       .  A
O651        C658   1.272       .  A
O652        C659   1.273       .  A
O653        C659   1.272       .  A
C654       C1055   1.436       .  S
C655        C842   1.433       .  S
C656        C942   1.434       .  S
C657        C836   1.436       .  S
C658        C832   1.436       .  S
C659        C848   1.435       .  S
C660        C825   1.442       .  S
C660        C661   1.405       .  A
C660        C665   1.400       .  A
C661        C662   1.405       .  A
C661        H666   1.084       .  S
C662       C1088   1.442       .  S
C662        C663   1.400       .  A
C663        C664   1.399       .  A
C663        H667   1.085       .  S
C664        C665   1.402       .  A
C664        C827   1.473       .  S
C665        H668   1.085       .  S
C669        C821   1.440       .  S
C669        C670   1.400       .  A
C669        C674   1.403       .  A
C670        C671   1.403       .  A
C670        H675   1.085       .  S
C671        C672   1.400       .  A
C671        C828   1.474       .  S
C672        C673   1.401       .  A
C672        H676   1.085       .  S
C673        C823   1.440       .  S
C673        C674   1.403       .  A
C674        H677   1.084       .  S
C678       C1086   1.442       .  S
C678        C679   1.401       .  A
C678        C683   1.404       .  A
C679        C680   1.406       .  A
C679        H684   1.084       .  S
C680        C681   1.400       .  A
C680        C817   1.480       .  S
C681        C682   1.399       .  A
C681        H685   1.085       .  S
C682        C831   1.440       .  S
C682        C683   1.402       .  A
C683        H686   1.084       .  S
C687        C864   1.441       .  S
C687        C688   1.402       .  A
C687        C692   1.403       .  A
C688        C689   1.406       .  A
C688        H693   1.084       .  S
C689        C690   1.400       .  A
C689        C818   1.480       .  S
C690        C691   1.398       .  A
C690        H694   1.085       .  S
C691        C815   1.439       .  S
C691        C692   1.402       .  A
C692        H695   1.084       .  S
Zn696       O700   1.968       .  S
Zn696       O701   2.020       .  S
Zn696       O705   2.026       .  S
Zn696       O712   2.021       .  S
Zn697       O700   1.966       .  S
Zn697       O702   2.022       .  S
Zn697       O704   2.022       .  S
Zn697       O708   2.023       .  S
Zn698       O700   1.963       .  S
Zn698       O703   2.011       .  S
Zn698       O706   2.013       .  S
Zn698       O709   2.012       .  S
Zn699       O700   1.959       .  S
Zn699       O707   2.021       .  S
Zn699       O710   2.014       .  S
Zn699       O711   2.013       .  S
O701        C713   1.272       .  A
O702        C714   1.273       .  A
O703        C715   1.271       .  A
O704        C713   1.272       .  A
O705        C715   1.273       .  A
O706        C714   1.271       .  A
O707        C716   1.272       .  A
O708        C717   1.272       .  A
O709        C716   1.270       .  A
O710        C717   1.271       .  A
O711        C718   1.272       .  A
O712        C718   1.272       .  A
C713        C878   1.436       .  S
C714        C816   1.435       .  S
C715        C824   1.436       .  S
C716       C1040   1.434       .  S
C717        C980   1.436       .  S
C718        C945   1.435       .  S
Zn719       O723   1.968       .  S
Zn719       O724   2.021   1_556  S
Zn719       O728   2.022       .  S
Zn719       O735   2.023   1_455  S
Zn720       O723   1.968   1_554  S
Zn720       O725   2.022       .  S
Zn720       O727   2.024       .  S
Zn720       O731   2.023   1_455  S
Zn721       O723   1.960       .  S
Zn721       O726   2.020       .  S
Zn721       O729   2.017   1_556  S
Zn721       O732   2.024       .  S
Zn722       O723   1.964   1_655  S
Zn722       O730   2.014       .  S
Zn722       O733   2.015   1_556  S
Zn722       O734   2.011       .  S
O724        C736   1.272       .  A
O725        C737   1.272       .  A
O726        C738   1.272       .  A
O727        C736   1.272       .  A
O728        C738   1.272       .  A
O729        C737   1.272       .  A
O730        C739   1.271       .  A
O731        C740   1.273       .  A
O732        C739   1.273   1_455  A
O733        C740   1.271       .  A
O734        C741   1.271       .  A
O735        C741   1.272       .  A
C736       C1070   1.437       .  S
C737        C813   1.436       .  S
C738        C924   1.437       .  S
C739        C822   1.436       .  S
C740        C899   1.436       .  S
C741        C833   1.435       .  S
C742        C970   1.438       .  S
C742        C743   1.401       .  A
C742        C747   1.401       .  A
C743        C744   1.401       .  A
C743        H748   1.085       .  S
C744        C745   1.403       .  A
C744        C810   1.474       .  S
C745        C746   1.401       .  A
C745        H749   1.084       .  S
C746        C918   1.438       .  S
C746        C747   1.401       .  A
C747        H750   1.085       .  S
C751        C807   1.443       .  S
C751        C752   1.401       .  A
C751        C756   1.405       .  A
C752        C753   1.400       .  A
C752        H757   1.085       .  S
C753        C754   1.403       .  A
C753        C809   1.475       .  S
C754        C755   1.401       .  A
C754        H758   1.085       .  S
C755        C911   1.443       .  S
C755        C756   1.405       .  A
C756        H759   1.084       .  S
C760        C996   1.440       .  S
C760        C761   1.400       .  A
C760        C765   1.402       .  A
C761        C762   1.402       .  A
C761        H766   1.085       .  S
C762        C763   1.406       .  A
C762        C804   1.482       .  S
C763        C764   1.402       .  A
C763        H767   1.084       .  S
C764        C814   1.440       .  S
C764        C765   1.402       .  A
C765        H768   1.084       .  S
C769        C865   1.442       .  S
C769        C770   1.401       .  A
C769        C774   1.403       .  A
C770        C771   1.406       .  A
C770        H775   1.084       .  S
C771        C772   1.402       .  A
C771        C803   1.482       .  S
C772        C773   1.401       .  A
C772        H776   1.085       .  S
C773        C801   1.442       .  S
C773        C774   1.403       .  A
C774        H777   1.084       .  S
Zn778       O782   1.960       .  S
Zn778       O783   2.013       .  S
Zn778       O787   2.022       .  S
Zn778       O794   2.017       .  S
Zn779       O782   1.971       .  S
Zn779       O784   2.025       .  S
Zn779       O786   2.031       .  S
Zn779       O790   2.029       .  S
Zn780       O782   1.969       .  S
Zn780       O785   2.023       .  S
Zn780       O788   2.024       .  S
Zn780       O791   2.019       .  S
Zn781       O782   1.969       .  S
Zn781       O789   2.029       .  S
Zn781       O792   2.024       .  S
Zn781       O793   2.025       .  S
O783        C795   1.271       .  A
O784        C796   1.273       .  A
O785        C797   1.272       .  A
O786        C795   1.273       .  A
O787        C797   1.273       .  A
O788        C796   1.273       .  A
O789        C798   1.273       .  A
O790        C799   1.273       .  A
O791        C798   1.273       .  A
O792        C799   1.273       .  A
O793        C800   1.272       .  A
O794        C800   1.272       .  A
C795        C922   1.437       .  S
C796        C854   1.438       .  S
C797        C826   1.438       .  S
C798        C808   1.438       .  S
C799        C975   1.439       .  S
C800        C802   1.437       .  S
C801        C802   1.207       .  T
C803        C804   1.345   1_556  D
C803        H805   1.086       .  S
C804        H806   1.086       .  S
C807        C808   1.208       .  T
C809        C810   1.341   1_565  D
C809        H811   1.087       .  S
C810        H812   1.087   1_545  S
C813        C814   1.206       .  T
C815        C816   1.205       .  T
C817        C818   1.343   1_545  D
C817        H819   1.086       .  S
C818        H820   1.086       .  S
C821        C822   1.206       .  T
C823        C824   1.206       .  T
C825        C826   1.208       .  T
C827        C828   1.341   1_455  D
C827        H829   1.087       .  S
C828        H830   1.087   1_655  S
C831        C832   1.206       .  T
C833        C834   1.206       .  T
C835        C836   1.206       .  T
C837        C838   1.342   1_556  D
C837        H839   1.087       .  S
C838        H840   1.087   1_554  S
C841        C842   1.205       .  T
C843        C844   1.344   1_455  D
C843        H845   1.087       .  S
C844        H846   1.086       .  S
C847        C848   1.206       .  T
C849        C850   1.341       .  D
C849        H851   1.087       .  S
C850        H852   1.087       .  S
C853        C854   1.208       .  T
C855        C856   1.344       .  D
C855        H857   1.086       .  S
C856        H858   1.086       .  S
C859        C860   1.207       .  T
C861        C862   1.208       .  T
C863        C864   1.207       .  T
C865        C866   1.207       .  T
C867        C868   1.206       .  T
C869        C870   1.207       .  T
C871        C872   1.207       .  T
C873        C874   1.344       .  D
C873        H875   1.086       .  S
C874        H876   1.087       .  S
C877        C878   1.207       .  T
C879        C880   1.206       .  T
C881        C882   1.341   1_556  D
C881        H883   1.087       .  S
C882        H884   1.087   1_554  S
C885        C886   1.208       .  T
C887        C888   1.207       .  T
C889        C890   1.342   1_455  D
C889        H891   1.087       .  S
C890        H892   1.087   1_655  S
C893        C894   1.208       .  T
C895        C896   1.343       .  D
C895        H897   1.087   1_565  S
C896        H898   1.086       .  S
C899        C900   1.206       .  T
C901        C902   1.207       .  T
C903        C904   1.344       .  D
C903        H905   1.087       .  S
C904        H906   1.087       .  S
C907        C908   1.205       .  T
C909        C910   1.206       .  T
C911        C912   1.208       .  T
C913        C914   1.206       .  T
C915        C916   1.206       .  T
C917        C918   1.205       .  T
C919        C920   1.207       .  T
C921        C922   1.207       .  T
C923        C924   1.207       .  T
C925        C926   1.207       .  T
C927        C928   1.341       .  D
C927        H929   1.087       .  S
C928        H930   1.087       .  S
C931        C932   1.207       .  T
C933        C934   1.205       .  T
C935        C936   1.343   1_556  D
C935        H937   1.087       .  S
C936        H938   1.087       .  S
C939        C940   1.206       .  T
C941        C942   1.205       .  T
C943        C944   1.207       .  T
C945        C946   1.206       .  T
C947        C948   1.207       .  T
C949        C950   1.344       .  D
C949        H951   1.087       .  S
C950        H952   1.087       .  S
C953        C954   1.206       .  T
C955        C956   1.341       .  D
C955        H957   1.087       .  S
C956        H958   1.087       .  S
C959        C960   1.206       .  T
C961        C962   1.206       .  T
C963        C964   1.342       .  D
C963        H965   1.087       .  S
C964        H966   1.087       .  S
C967        C968   1.207       .  T
C969        C970   1.205       .  T
C971        C972   1.206       .  T
C973        C974   1.207       .  T
C975        C976   1.208       .  T
C977        C978   1.207       .  T
C979        C980   1.207       .  T
C981        C982   1.206       .  T
C983        C984   1.345       .  D
C983        H985   1.086       .  S
C984        H986   1.086       .  S
C987        C988   1.206       .  T
C989        C990   1.205       .  T
C991        C992   1.207       .  T
C993        C994   1.208       .  T
C995        C996   1.206       .  T
C997        C998   1.207       .  T
C999       C1000   1.206       .  T
C1001      C1002   1.207       .  T
C1003      C1004   1.206       .  T
C1005      C1006   1.206       .  T
C1007      C1008   1.205       .  T
C1009      C1010   1.344   1_545  D
C1009      H1011   1.086       .  S
C1010      H1012   1.086       .  S
C1013      C1014   1.207       .  T
C1015      C1016   1.208       .  T
C1017      C1018   1.208       .  T
C1019      C1020   1.208       .  T
C1021      C1022   1.341       .  D
C1021      H1023   1.087       .  S
C1022      H1024   1.087       .  S
C1025      C1026   1.206       .  T
C1027      C1028   1.205       .  T
C1029      C1030   1.207       .  T
C1031      C1032   1.207       .  T
C1033      C1034   1.205       .  T
C1035      C1036   1.206       .  T
C1037      C1038   1.206       .  T
C1039      C1040   1.205       .  T
C1041      C1042   1.206       .  T
C1043      C1044   1.341       .  D
C1043      H1045   1.087       .  S
C1044      H1046   1.087       .  S
C1047      C1048   1.207       .  T
C1049      C1050   1.206       .  T
C1051      C1052   1.205       .  T
C1053      C1054   1.207       .  T
C1055      C1056   1.207       .  T
C1057      C1058   1.206       .  T
C1059      C1060   1.208       .  T
C1061      C1062   1.208       .  T
C1063      C1064   1.345       .  D
C1063      H1065   1.086       .  S
C1064      H1066   1.086       .  S
C1067      C1068   1.205       .  T
C1069      C1070   1.207       .  T
C1071      C1072   1.207       .  T
C1073      C1074   1.344   1_455  D
C1073      H1075   1.087       .  S
C1074      H1076   1.086       .  S
C1077      C1078   1.205       .  T
C1079      C1080   1.207       .  T
C1081      C1082   1.206       .  T
C1083      C1084   1.206       .  T
C1085      C1086   1.207       .  T
C1087      C1088   1.208       .  T
