geometry optimzed in LAMMPS
_audit_creation_date              2020-11-30 
_audit_creation_method            'lammps2cif' 
_symmetry_space_group_name_H-M    'P1' 
_symmetry_Int_Tables_number       1 
_symmetry_cell_setting            triclinic 
loop_ 
_symmetry_equiv_pos_as_xyz 
  x,y,z 
_cell_length_a                    27.19436605 
_cell_length_b                    26.59860683331172 
_cell_length_c                    43.835032538513154 
_cell_angle_alpha                 89.8490451728473 
_cell_angle_beta                  89.11225516598122 
_cell_angle_gamma                 90.31342255372367 
loop_ 
_atom_site_label 
_atom_site_type_symbol 
_atom_site_fract_x 
_atom_site_fract_y 
_atom_site_fract_z 
_atom_site_charge 
C1          C  0.49578536  0.23142521  0.38490767     0.86300
C2          C  0.44963048  0.26451455  0.38895533    -0.53900
C3          C  0.44959618  0.30632297  0.37123912     0.09200
C4          C  0.49592414  0.31304788  0.35145373     0.20200
C5          C  0.49958115  0.22160151  0.35021680    -0.54600
C6          C  0.49951286  0.26435457  0.33244933     0.09400
C7          C  0.53827656  0.26813846  0.39156814    -0.54200
C8          C  0.53902755  0.31032812  0.37382542     0.09900
H9          H  0.41950913  0.25751904  0.40484139     0.14400
H10         H  0.49446560  0.34837332  0.33812718     0.00200
H11         H  0.50176402  0.18401394  0.34073187     0.14700
H12         H  0.56578429  0.26148054  0.40877916     0.14500
C13         C  0.22323301  0.50088212  0.38582345     0.86300
C14         C  0.26276536  0.54303627  0.38775624    -0.53900
C15         C  0.30019926  0.53954563  0.36673343     0.09200
C16         C  0.29523230  0.49372844  0.34582662     0.20200
C17         C  0.20668962  0.50283674  0.35232785    -0.54600
C18         C  0.24453025  0.49940206  0.33157121     0.09400
C19         C  0.25348923  0.45249877  0.38857727    -0.54200
C20         C  0.29068568  0.44847706  0.36754824     0.09900
H21         H  0.26326385  0.57303862  0.40424406     0.14400
H22         H  0.32496774  0.49025149  0.32840326     0.00200
H23         H  0.16883990  0.50881698  0.34573469     0.14700
H24         H  0.24701422  0.42449250  0.40629048     0.14500
C25         C  0.77179461  0.49926469  0.39408130     0.86300
C26         C  0.73917189  0.45146922  0.39506034    -0.53900
C27         C  0.70140360  0.45227389  0.37487796     0.09200
C28         C  0.70058136  0.49950397  0.35481698     0.20200
C29         C  0.78928544  0.50166837  0.36040712    -0.54600
C30         C  0.75204751  0.50237743  0.34016752     0.09400
C31         C  0.73586695  0.54345248  0.39780040    -0.54200
C32         C  0.69820884  0.54338485  0.37745936     0.09900
H33         H  0.74437409  0.42047897  0.41080543     0.14400
H34         H  0.67046756  0.49891304  0.33798521     0.00600
H35         H  0.82725060  0.50031119  0.35258920     0.14700
H36         H  0.74057090  0.57254443  0.41484153     0.14500
C37         C  0.49670245  0.76626673  0.38980066     0.86300
C38         C  0.54080564  0.73080675  0.39288608    -0.53900
C39         C  0.54276668  0.69284729  0.37184879     0.09200
C40         C  0.49945505  0.69379301  0.34951465     0.20200
C41         C  0.49881338  0.78455799  0.35641310    -0.54600
C42         C  0.50023094  0.74664373  0.33552884     0.09400
C43         C  0.45208832  0.72982158  0.39123928    -0.54200
C44         C  0.45301974  0.69282285  0.36975255     0.09900
H45         H  0.56813461  0.73538857  0.41047858     0.14400
H46         H  0.49970608  0.66345312  0.33224825     0.00200
H47         H  0.49827809  0.82396577  0.34988832     0.14700
H48         H  0.42301592  0.73033562  0.40826513     0.14500
C49         C  0.49851801  0.23979510  0.14524734     0.86300
C50         C  0.54321945  0.27564008  0.14212548    -0.53900
C51         C  0.54147721  0.31600217  0.16091204     0.09200
C52         C  0.49468220  0.31827873  0.18086228     0.20200
C53         C  0.49524050  0.22703647  0.17960710    -0.54600
C54         C  0.49266411  0.26801757  0.19859238     0.09400
C55         C  0.45439772  0.27473695  0.13939791    -0.54200
C56         C  0.45212783  0.31561228  0.15825141     0.09900
H57         H  0.57378011  0.27124216  0.12628889     0.14400
H58         H  0.49319232  0.35256705  0.19511822     0.00200
H59         H  0.49731039  0.18865391  0.18782113     0.14700
H60         H  0.42698935  0.26729682  0.12225452     0.14500
C61         C  0.22603240  0.51336741  0.14716731     0.86300
C62         C  0.25881374  0.46650265  0.14472878    -0.53900
C63         C  0.29830918  0.46678766  0.16360690     0.09200
C64         C  0.30093453  0.51394917  0.18376238     0.20200
C65         C  0.21181583  0.51601365  0.18146258    -0.54600
C66         C  0.25094674  0.51641270  0.20047250     0.09400
C67         C  0.26139723  0.55823700  0.14234530    -0.54200
C68         C  0.30074655  0.55830039  0.16131689     0.09900
H69         H  0.25172545  0.43601891  0.12892484     0.14400
H70         H  0.33284072  0.51473030  0.19918205     0.00200
H71         H  0.17496129  0.51792356  0.19088739     0.14700
H72         H  0.25650785  0.58638816  0.12469429     0.14500
C73         C  0.77641646  0.50549359  0.15618239     0.86300
C74         C  0.74216373  0.55180262  0.15686596    -0.53900
C75         C  0.70394796  0.54883587  0.17749309     0.09200
C76         C  0.70404662  0.49995927  0.19615240     0.20200
C77         C  0.79326462  0.49982783  0.18919937    -0.54600
C78         C  0.75570065  0.49713616  0.20997860     0.09400
C79         C  0.74034344  0.46149926  0.15095151    -0.54200
C80         C  0.70269588  0.45821858  0.17197879     0.09900
H81         H  0.74480078  0.58323468  0.14128945     0.14400
H82         H  0.67348537  0.49738135  0.21301804     0.00200
H83         H  0.83165082  0.49988818  0.19569567     0.14700
H84         H  0.74376222  0.43578689  0.13184242     0.14500
C85         C  0.51085893  0.77546962  0.15119431     0.86300
C86         C  0.46739511  0.74006363  0.14462433    -0.53900
C87         C  0.46263621  0.70043105  0.16421717     0.09200
C88         C  0.50224528  0.69917468  0.18879994     0.20200
C89         C  0.50448261  0.79070187  0.18487664    -0.54600
C90         C  0.49983872  0.75086414  0.20442727     0.09400
C91         C  0.55596915  0.74039130  0.15161359    -0.54200
C92         C  0.55101256  0.70005171  0.17069728     0.09900
H93         H  0.44242452  0.74590075  0.12584512     0.14400
H94         H  0.49829699  0.66711256  0.20494866     0.00200
H95         H  0.50467954  0.82944757  0.19262969     0.14700
H96         H  0.58990146  0.74600514  0.13889185     0.14500
O97         O  0.94596591  0.46275881  0.49365259    -0.71900
O98         O  0.05194246  0.46616595  0.04900742    -0.72200
O99         O  0.95321701  0.46595074  0.05452562    -0.72000
O100        O  0.04515446  0.46300998  0.48799702    -0.72000
O101        O  0.04695290  0.54458444  0.48792658    -0.72000
O102        O  0.95144006  0.54723061  0.05143043    -0.72000
O103        O  0.04991111  0.54792475  0.04868714    -0.71900
O104        O  0.94871396  0.54434674  0.49050000    -0.72100
V105        V  0.99908086  0.46594996  0.02123427     1.35200
V106        V  0.99920477  0.54437866  0.01966139     1.35200
C107        C  0.92975043  0.50314260  0.48250800     0.77300
C108        C  0.06845882  0.50770996  0.05840584     0.77400
C109        C  0.93583410  0.50726494  0.06394390     0.77200
C110        C  0.06298322  0.50360595  0.47735035     0.77200
O111        O  0.46622419  0.95264419  0.05084323    -0.71900
O112        O  0.46028951  0.05107350  0.48804317    -0.72200
O113        O  0.46130366  0.95031348  0.48986717    -0.72000
O114        O  0.46451585  0.05329508  0.04939585    -0.72000
O115        O  0.54399373  0.05597625  0.04563189    -0.72000
O116        O  0.54093429  0.95076728  0.48681729    -0.72000
O117        O  0.53976407  0.05181522  0.48416164    -0.71900
O118        O  0.54588053  0.95528173  0.04780353    -0.72100
V119        V  0.46463833  0.00197390  0.01942079     1.35200
V120        V  0.54113716  0.00352561  0.01618152     1.35200
C121        C  0.50731708  0.93686603  0.05987936     0.77300
C122        C  0.49887721  0.06794759  0.47504034     0.77400
C123        C  0.50031562  0.93214731  0.47854879     0.77200
C124        C  0.50474899  0.07207116  0.05801550     0.77200
C125        C  0.51212000  0.82008614  0.12878566    -0.00300
C126        C  0.55148532  0.82715114  0.10781016    -0.12200
C127        C  0.55087444  0.86488778  0.08561588     0.01900
C128        C  0.51021935  0.89743678  0.08374224    -0.00400
C129        C  0.47104694  0.89130530  0.10462481    -0.12100
C130        C  0.47160032  0.85346384  0.12692223     0.01800
H131        H  0.58299234  0.80277292  0.10740722     0.14800
H132        H  0.43956239  0.91607999  0.10345073     0.14800
C133        C  0.42907717  0.84880115  0.14694492     0.36400
C134        C  0.59163750  0.86735842  0.06407604     0.36300
N135        N  0.39495869  0.84478373  0.16289570    -0.43900
N136        N  0.62428826  0.86916480  0.04684751    -0.43900
C137        C  0.81999774  0.50689741  0.13327019    -0.00300
C138        C  0.83278166  0.55141304  0.11737744    -0.12200
C139        C  0.87041272  0.55266234  0.09529898     0.01900
C140        C  0.89749645  0.50872878  0.08857841    -0.00400
C141        C  0.88720400  0.46502283  0.10562842    -0.12100
C142        C  0.84974187  0.46395578  0.12801528     0.01800
H143        H  0.81471490  0.58647022  0.12215880     0.14800
H144        H  0.90863123  0.43136379  0.10156472     0.14800
C145        C  0.84310628  0.41814007  0.14540342     0.36400
C146        C  0.87958340  0.59997424  0.07986150     0.36300
N147        N  0.83793754  0.38144592  0.15936124    -0.43900
N148        N  0.88682366  0.63797086  0.06762202    -0.43900
C149        C  0.66250064  0.58562522  0.17708712    -0.00300
C150        C  0.64716221  0.60320458  0.14849630    -0.12200
C151        C  0.61070031  0.63954598  0.14596204     0.01900
C152        C  0.58875027  0.66005381  0.17250710    -0.00400
C153        C  0.60184087  0.64092074  0.20105571    -0.12100
C154        C  0.63781485  0.60354588  0.20360854     0.01800
H155        H  0.66306316  0.58770379  0.12774724     0.14800
H156        H  0.58409458  0.65547514  0.22150670     0.14800
C157        C  0.64731389  0.58460054  0.23375214     0.36400
C158        C  0.59462704  0.65282891  0.11573302     0.36300
N159        N  0.65249508  0.56952802  0.25826872    -0.43900
N160        N  0.58161447  0.66352103  0.09156712    -0.43900
C161        C  0.10761779  0.50932474  0.08090006    -0.00300
C162        C  0.15664773  0.51020090  0.07096271    -0.12200
C163        C  0.19489454  0.51130282  0.09198636     0.01900
C164        C  0.18429578  0.51237136  0.12390839    -0.00400
C165        C  0.13432582  0.51144918  0.13333025    -0.12100
C166        C  0.09641827  0.50991165  0.11220967     0.01800
H167        H  0.16505000  0.50961666  0.04668065     0.14800
H168        H  0.12344191  0.51121827  0.15700412     0.14800
C169        C  0.04603839  0.50853257  0.12321797     0.36400
C170        C  0.24466840  0.51049573  0.07994465     0.36300
N171        N  0.00572723  0.50736015  0.13205490    -0.43900
N172        N  0.28447906  0.50966372  0.07023788    -0.43900
C173        C  0.34152898  0.59559974  0.15979899    -0.00300
C174        C  0.38985157  0.57781914  0.16171587    -0.12200
C175        C  0.42986827  0.61094074  0.16275477     0.01900
C176        C  0.42186643  0.66331780  0.16202403    -0.00400
C177        C  0.37361058  0.68113847  0.15913396    -0.12100
C178        C  0.33353757  0.64793729  0.15814298     0.01800
H179        H  0.39647572  0.53763566  0.16223466     0.14800
H180        H  0.36704718  0.72132201  0.15859459     0.14800
C181        C  0.28469815  0.66880063  0.15729837     0.36400
C182        C  0.47845937  0.58951205  0.16312183     0.36300
N183        N  0.24557646  0.68562116  0.15658139    -0.43900
N184        N  0.51666593  0.57060260  0.16318505    -0.43900
C185        C  0.50069442  0.19264791  0.12478369    -0.00300
C186        C  0.54573381  0.17708115  0.11147737    -0.12200
C187        C  0.54824987  0.13813728  0.09013121     0.01900
C188        C  0.50514656  0.11187512  0.08199070    -0.00400
C189        C  0.46100154  0.12356588  0.09756317    -0.12100
C190        C  0.45864327  0.16247621  0.11914012     0.01800
H191        H  0.58007649  0.19419401  0.11789482     0.14800
H192        H  0.42789725  0.10217140  0.09293558     0.14800
C193        C  0.41258494  0.16984053  0.13532521     0.36400
C194        C  0.59596638  0.12671234  0.07704979     0.36300
N195        N  0.37558730  0.17554424  0.14822729    -0.43900
N196        N  0.63443400  0.11799139  0.06677801    -0.43900
C197        C  0.41157264  0.35318154  0.15857825    -0.00300
C198        C  0.39369505  0.36975148  0.18701772    -0.12200
C199        C  0.35742821  0.40670344  0.18926930     0.01900
C200        C  0.33690110  0.42713938  0.16260120    -0.00400
C201        C  0.35445381  0.41031886  0.13406435    -0.12100
C202        C  0.39179916  0.37424865  0.13181301     0.01800
H203        H  0.40820908  0.35376384  0.20778971     0.14800
H204        H  0.34005667  0.42666554  0.11336352     0.14800
C205        C  0.41083007  0.36197924  0.10184337     0.36400
C206        C  0.34246511  0.42268170  0.21937453     0.36300
N207        N  0.42594839  0.35245074  0.07773185    -0.43900
N208        N  0.33179320  0.43607592  0.24364616    -0.43900
C209        C  0.66153315  0.42131700  0.16942977    -0.00300
C210        C  0.64016793  0.41334756  0.14073802    -0.12200
C211        C  0.60053045  0.37988428  0.13738563     0.01900
C212        C  0.58259425  0.35260738  0.16285664    -0.00400
C213        C  0.60531735  0.35884361  0.19091793    -0.12100
C214        C  0.64267380  0.39422822  0.19485910     0.01800
H215        H  0.65357711  0.43430728  0.12102776     0.14800
H216        H  0.59492514  0.33487193  0.20979378     0.14800
C217        C  0.65956966  0.40151919  0.22553186     0.36400
C218        C  0.57852519  0.37447481  0.10780312     0.36300
N219        N  0.67015581  0.40687116  0.25077416    -0.43900
N220        N  0.56072281  0.36967685  0.08417137    -0.43900
C221        C  0.49911318  0.75485399  0.30220240    -0.00300
C222        C  0.45562042  0.74378301  0.28675985    -0.12200
C223        C  0.45448609  0.74494823  0.25482803     0.01900
C224        C  0.49762026  0.75639795  0.23797505    -0.00400
C225        C  0.54065583  0.76932315  0.25343567    -0.12100
C226        C  0.54163413  0.76886248  0.28540819     0.01800
H227        H  0.42275336  0.73339716  0.29969232     0.14800
H228        H  0.57399923  0.77781232  0.24048625     0.14800
C229        C  0.58751135  0.77896124  0.30041056     0.36400
C230        C  0.40862395  0.73505571  0.23981825     0.36300
N231        N  0.62444336  0.78640666  0.31239948    -0.43900
N232        N  0.37162527  0.72796158  0.22784945    -0.43900
C233        C  0.49719951  0.81001213  0.41289139    -0.00300
C234        C  0.45638180  0.81963229  0.43228606    -0.12200
C235        C  0.45673074  0.85844843  0.45374977     0.01900
C236        C  0.49837532  0.89009079  0.45624152    -0.00400
C237        C  0.53887567  0.88156565  0.43675753    -0.12100
C238        C  0.53848485  0.84275566  0.41512287     0.01800
H239        H  0.42294426  0.79801450  0.43096969     0.14800
H240        H  0.57091473  0.90588911  0.43806477     0.14800
C241        C  0.58110364  0.83812604  0.39528848     0.36400
C242        C  0.41371960  0.86384493  0.47325254     0.36300
N243        N  0.61544518  0.83483331  0.37951886    -0.43900
N244        N  0.37911863  0.86787316  0.98874390    -0.43900
C245        C  0.76066783  0.50235614  0.30695250    -0.00300
C246        C  0.76897237  0.45649206  0.29211070    -0.12200
C247        C  0.77179595  0.45444553  0.26020908     0.01900
C248        C  0.76384676  0.49843674  0.24308867    -0.00400
C249        C  0.76032646  0.54478504  0.25798300    -0.12100
C250        C  0.75917215  0.54712981  0.28983134     0.01800
H251        H  0.77212347  0.42225482  0.30542410     0.14800
H252        H  0.75677322  0.57898951  0.24467969     0.14800
C253        C  0.75623404  0.59566301  0.30437645     0.36400
C254        C  0.78149561  0.40687240  0.24559215     0.36300
N255        N  0.75434269  0.63471571  0.31589779    -0.43900
N256        N  0.78929537  0.36860712  0.23403905    -0.43900
C257        C  0.81257116  0.50092741  0.41786986    -0.00300
C258        C  0.85915089  0.52136326  0.41000837    -0.12200
C259        C  0.89745180  0.52242505  0.43083374     0.01900
C260        C  0.89006751  0.50257587  0.46025531    -0.00400
C261        C  0.84336746  0.48523635  0.46915731    -0.12100
C262        C  0.80420188  0.48632486  0.44876248     0.01800
H263        H  0.86595467  0.53843647  0.38795958     0.14800
H264        H  0.83705785  0.47272862  0.49248266     0.14800
C265        C  0.75570178  0.47479875  0.46081785     0.36400
C266        C  0.94414220  0.54422548  0.42151737     0.36300
N267        N  0.71695218  0.46582906  0.47075535    -0.43900
N268        N  0.98149160  0.56193770  0.41423762    -0.43900
C269        C  0.65834456  0.58163546  0.37674065    -0.00300
C270        C  0.64214564  0.59852014  0.34827288    -0.12200
C271        C  0.60430306  0.63370637  0.34585016     0.01900
C272        C  0.58167949  0.65336170  0.37250673    -0.00400
C273        C  0.59705276  0.63535340  0.40102486    -0.12100
C274        C  0.63463931  0.59981848  0.40337970     0.01800
H275        H  0.65939613  0.58444732  0.32758810     0.14800
H276        H  0.57897699  0.64844750  0.42172386     0.14800
C277        C  0.64615659  0.58116396  0.43337321     0.36400
C278        C  0.59059533  0.64869023  0.31553336     0.36300
N279        N  0.65512542  0.56651702  0.45752692    -0.43900
N280        N  0.58004916  0.65892835  0.29082360    -0.43900
C281        C  0.24510131  0.51646361  0.23420576    -0.00300
C282        C  0.21310368  0.48123565  0.24812083    -0.12200
C283        C  0.21008833  0.47657723  0.27995921     0.01900
C284        C  0.23975213  0.50732394  0.29831713    -0.00400
C285        C  0.26972514  0.54418463  0.28446808    -0.12100
C286        C  0.27230579  0.54930047  0.25276428     0.01800
H287        H  0.19188415  0.45589906  0.23405658     0.14800
H288        H  0.29180265  0.56875408  0.29854528     0.14800
C289        C  0.30227900  0.58933847  0.24013357     0.36400
C290        C  0.17874691  0.43798397  0.29301392     0.36300
N291        N  0.32630667  0.62192866  0.23057993    -0.43900
N292        N  0.15352815  0.40687270  0.30323943    -0.43900
C293        C  0.10275547  0.50378768  0.45379389    -0.00300
C294        C  0.10633349  0.46435945  0.43271803    -0.12200
C295        C  0.14403274  0.46355572  0.41043022     0.01900
C296        C  0.17999043  0.50259687  0.40900388    -0.00400
C297        C  0.17515056  0.54239645  0.43006230    -0.12100
C298        C  0.13790411  0.54294201  0.45232146     0.01800
H299        H  0.07943399  0.43410586  0.43355124     0.14800
H300        H  0.19996875  0.57393429  0.42999257     0.14800
C301        C  0.13840055  0.58334630  0.47434315     0.36400
C302        C  0.14507527  0.42160100  0.38958818     0.36300
N303        N  0.13888650  0.61551403  0.49206596    -0.43900
N304        N  0.14592756  0.38772556  0.37308407    -0.43900
C305        C  0.33999408  0.57842128  0.36436841    -0.00300
C306        C  0.32708307  0.62918391  0.36816788    -0.12200
C307        C  0.36286061  0.66709630  0.36906435     0.01900
C308        C  0.41321968  0.65455352  0.36670648    -0.00400
C309        C  0.42608741  0.60433980  0.36124509    -0.12100
C310        C  0.39016701  0.56650492  0.35962985     0.01800
H311        H  0.28864183  0.63943279  0.37035279     0.14800
H312        H  0.46454516  0.59426035  0.35889199     0.14800
C313        C  0.40653784  0.51615818  0.35326661     0.36400
C314        C  0.34659052  0.71856610  0.37157320     0.36300
N315        N  0.42022005  0.47629248  0.34714374    -0.43900
N316        N  0.33365799  0.75981409  0.37368277    -0.43900
C317        C  0.49251649  0.26549124  0.23301956    -0.00300
C318        C  0.51581503  0.30433487  0.24902087    -0.12200
C319        C  0.52150636  0.30300825  0.28058504     0.01900
C320        C  0.49948285  0.26403443  0.29813361    -0.00400
C321        C  0.47401577  0.22587612  0.28249686    -0.12100
C322        C  0.47054850  0.22608452  0.25041442     0.01800
H323        H  0.53063477  0.33648478  0.23712540     0.14800
H324        H  0.45547478  0.19634534  0.29538008     0.14800
C325        C  0.44115621  0.18737644  0.23646057     0.36400
C326        C  0.55242869  0.34155489  0.29348201     0.36300
N327        N  0.41749465  0.15631605  0.22535027    -0.43900
N328        N  0.57720209  0.37319069  0.30297473    -0.43900
C329        C  0.49605952  0.18340787  0.40477741    -0.00300
C330        C  0.45207357  0.16537034  0.41846151    -0.12200
C331        C  0.45196448  0.12826342  0.44108206     0.01900
C332        C  0.49653565  0.10573874  0.44984719    -0.00400
C333        C  0.53985435  0.11924244  0.43372657    -0.12100
C334        C  0.53980058  0.15664497  0.41099168     0.01800
H335        H  0.41682173  0.17961270  0.41165101     0.14800
H336        H  0.57412378  0.10063599  0.43890123     0.14800
C337        C  0.58513262  0.16623227  0.39430671     0.36400
C338        C  0.40516340  0.11530699  0.45512715     0.36300
N339        N  0.62145710  0.17382905  0.38092836    -0.43900
N340        N  0.36756717  0.10525614  0.46634689    -0.43900
C341        C  0.40766262  0.34136784  0.37093983    -0.00300
C342        C  0.38152014  0.34749193  0.34386966    -0.12200
C343        C  0.34120182  0.37997847  0.34279019     0.01900
C344        C  0.32801033  0.40832561  0.36873750    -0.00400
C345        C  0.35328125  0.40096994  0.39602356    -0.12100
C346        C  0.39238840  0.36723634  0.39743794     0.01800
H347        H  0.39196967  0.32602034  0.32380340     0.14800
H348        H  0.34326640  0.42265443  0.41607605     0.14800
C349        C  0.41766037  0.36152601  0.42595921     0.36400
C350        C  0.31192561  0.38110981  0.31565898     0.36300
N351        N  0.43809003  0.35708912  0.44876119    -0.43900
N352        N  0.28761421  0.38086721  0.29424493    -0.43900
C353        C  0.58034975  0.34713977  0.37459073    -0.00300
C354        C  0.62878028  0.32956064  0.37083541    -0.12200
C355        C  0.66899967  0.36282440  0.37104942     0.01900
C356        C  0.66093137  0.41475858  0.37476518    -0.00400
C357        C  0.61271470  0.43224568  0.37856388    -0.12100
C358        C  0.57266982  0.39902107  0.37888210     0.01800
H359        H  0.63513190  0.28974142  0.36739668     0.14800
H360        H  0.60639246  0.47207669  0.38208566     0.14800
C361        C  0.52480304  0.41917777  0.38577810     0.36400
C362        C  0.71786887  0.34300438  0.36654994     0.36300
N363        N  0.48725243  0.43682811  0.39201463    -0.43900
N364        N  0.75704098  0.32703979  0.36301630    -0.43900
C365        C  0.49578640  0.23142762  0.88490792     0.86300
C366        C  0.44963209  0.26451752  0.88895627    -0.53900
C367        C  0.44959755  0.30632598  0.87124012     0.09200
C368        C  0.49592492  0.31305040  0.85145410     0.20200
C369        C  0.49958081  0.22160403  0.85021701    -0.54600
C370        C  0.49951239  0.26435712  0.83244956     0.09400
C371        C  0.53827834  0.26814029  0.89156782    -0.54200
C372        C  0.53902920  0.31033005  0.87382518     0.09900
H373        H  0.41951104  0.25752205  0.90484264     0.14400
H374        H  0.49446625  0.34837595  0.83812760     0.00200
H375        H  0.50176310  0.18401645  0.84073200     0.14700
H376        H  0.56578655  0.26148203  0.90877849     0.14500
C377        C  0.22323266  0.50088370  0.88582412     0.86300
C378        C  0.26276491  0.54303785  0.88775677    -0.53900
C379        C  0.30019879  0.53954709  0.86673403     0.09200
C380        C  0.29523211  0.49372953  0.84582746     0.20200
C381        C  0.20668935  0.50283755  0.85232849    -0.54600
C382        C  0.24453011  0.49940262  0.83157194     0.09400
C383        C  0.25348903  0.45250044  0.88857836    -0.54200
C384        C  0.29068559  0.44847847  0.86754932     0.09900
H385        H  0.26326367  0.57304016  0.90424470     0.14400
H386        H  0.32496772  0.49025246  0.82840418     0.00200
H387        H  0.16883973  0.50881737  0.84573526     0.14700
H388        H  0.24701411  0.42449463  0.90629178     0.14500
C389        C  0.77179555  0.49926821  0.89408053     0.86300
C390        C  0.73917398  0.45147188  0.89505922    -0.53900
C391        C  0.70140555  0.45227594  0.87487694     0.09200
C392        C  0.70058206  0.49950646  0.85481633     0.20200
C393        C  0.78928612  0.50167325  0.86040628    -0.54600
C394        C  0.75204804  0.50238173  0.84016676     0.09400
C395        C  0.73586667  0.54345493  0.89780008    -0.54200
C396        C  0.69820853  0.54338674  0.87745908     0.09900
H397        H  0.74437677  0.42048163  0.91080434     0.14400
H398        H  0.67046821  0.49891508  0.83798464     0.00600
H399        H  0.82725123  0.50031700  0.85258818     0.14700
H400        H  0.74056982  0.57254657  0.91484149     0.14500
C401        C  0.49670225  0.76626816  0.88980019     0.86300
C402        C  0.54080456  0.73080717  0.89288614    -0.53900
C403        C  0.54276530  0.69284770  0.87184890     0.09200
C404        C  0.49945406  0.69379406  0.84951451     0.20200
C405        C  0.49881418  0.78455908  0.85641261    -0.54600
C406        C  0.50023107  0.74664462  0.83552850     0.09400
C407        C  0.45208748  0.72982386  0.89123882    -0.54200
C408        C  0.45301852  0.69282489  0.86975224     0.09900
H409        H  0.56813332  0.73538836  0.91047889     0.14400
H410        H  0.49970494  0.66345401  0.83224819     0.00200
H411        H  0.49827963  0.82396682  0.84988773     0.14700
H412        H  0.42301556  0.73033818  0.90826507     0.14500
C413        C  0.49851740  0.23979390  0.64524760     0.86300
C414        C  0.54321905  0.27563844  0.64212527    -0.53900
C415        C  0.54147747  0.31600088  0.66091147     0.09200
C416        C  0.49468268  0.31827835  0.68086188     0.20200
C417        C  0.49524015  0.22703608  0.67960749    -0.54600
C418        C  0.49266423  0.26801764  0.69859243     0.09400
C419        C  0.45439733  0.27473599  0.63939807    -0.54200
C420        C  0.45212804  0.31561176  0.65825124     0.09900
H421        H  0.57377960  0.27123990  0.62628855     0.14400
H422        H  0.49319327  0.35256705  0.69511749     0.00200
H423        H  0.49730979  0.18865363  0.68782181     0.14700
H424        H  0.42698863  0.26729566  0.62225490     0.14500
C425        C  0.22603097  0.51336410  0.64716790     0.86300
C426        C  0.25881254  0.46649960  0.64472969    -0.53900
C427        C  0.29830809  0.46678534  0.66360761     0.09200
C428        C  0.30093321  0.51394719  0.68376283     0.20200
C429        C  0.21181442  0.51601088  0.68146317    -0.54600
C430        C  0.25094542  0.51641065  0.70047302     0.09400
C431        C  0.26139545  0.55823392  0.64234552    -0.54200
C432        C  0.30074487  0.55829794  0.66131704     0.09900
H433        H  0.25172443  0.43601539  0.62892588     0.14400
H434        H  0.33283947  0.51472876  0.69918242     0.00200
H435        H  0.17495981  0.51792056  0.69088797     0.14700
H436        H  0.25650583  0.58638461  0.62469433     0.14500
C437        C  0.77641571  0.50549306  0.65618127     0.86300
C438        C  0.74216119  0.55180084  0.65686441    -0.53900
C439        C  0.70394561  0.54883321  0.67749160     0.09200
C440        C  0.70404619  0.49995733  0.69615152     0.20200
C441        C  0.79326420  0.49982960  0.68919838    -0.54600
C442        C  0.75570037  0.49713701  0.70997772     0.09400
C443        C  0.74034462  0.46149695  0.65095123    -0.54200
C444        C  0.70269710  0.45821571  0.67197845     0.09900
H445        H  0.74479737  0.58323350  0.64128837     0.14400
H446        H  0.67348502  0.49737883  0.71301719     0.00200
H447        H  0.83165041  0.49989185  0.69569464     0.14700
H448        H  0.74376460  0.43578386  0.63184255     0.14500
C449        C  0.51085743  0.77546746  0.65119395     0.86300
C450        C  0.46739326  0.74006183  0.64462401    -0.53900
C451        C  0.46263411  0.70042922  0.66421685     0.09200
C452        C  0.50224326  0.69917257  0.68879958     0.20200
C453        C  0.50448145  0.79069970  0.68487624    -0.54600
C454        C  0.49983726  0.75086210  0.70442690     0.09400
C455        C  0.55596730  0.74038864  0.65161305    -0.54200
C456        C  0.55101040  0.70004911  0.67069679     0.09900
H457        H  0.44242270  0.74589907  0.62584476     0.14400
H458        H  0.49829479  0.66711046  0.70494833     0.00200
H459        H  0.50467883  0.82944547  0.69262927     0.14700
H460        H  0.58989932  0.74600175  0.63889100     0.14500
O461        O  0.94596505  0.46276342  0.99365334    -0.71900
O462        O  0.05194208  0.46616063  0.54900750    -0.72200
O463        O  0.95321652  0.46594614  0.55452490    -0.72000
O464        O  0.04515345  0.46301498  0.98799713    -0.72000
O465        O  0.04695202  0.54458943  0.98792679    -0.72000
O466        O  0.95144101  0.54722614  0.55142999    -0.72000
O467        O  0.04991175  0.54791948  0.54868693    -0.71900
O468        O  0.94871315  0.54435130  0.99050036    -0.72100
V469        V  0.99908117  0.46594506  0.52123390     1.35200
V470        V  0.99920560  0.54437380  0.51966107     1.35200
C471        C  0.92974969  0.50314710  0.98250850     0.77300
C472        C  0.06845864  0.50770451  0.55840597     0.77400
C473        C  0.93583391  0.50726055  0.56394300     0.77200
C474        C  0.06298216  0.50361096  0.97735044     0.77200
O475        O  0.46622376  0.95264326  0.55084388    -0.71900
O476        O  0.46029049  0.05107543  0.98804304    -0.72200
O477        O  0.46130397  0.95031552  0.98986644    -0.72000
O478        O  0.46451481  0.05329410  0.54939603    -0.72000
O479        O  0.54399270  0.05597544  0.54563225    -0.72000
O480        O  0.54093455  0.95076828  0.98681675    -0.72000
O481        O  0.53976502  0.05181631  0.98416121    -0.71900
O482        O  0.54588007  0.95528105  0.54780409    -0.72100
V483        V  0.46463762  0.00197247  0.51942121     1.35200
V484        V  0.54113646  0.00352469  0.51618199     1.35200
C485        C  0.50731671  0.93686531  0.55987999     0.77300
C486        C  0.49887820  0.06794919  0.97504009     0.77400
C487        C  0.50031571  0.93214904  0.97854798     0.77200
C488        C  0.50474787  0.07207033  0.55801573     0.77200
C489        C  0.51211893  0.82008437  0.62878561    -0.00300
C490        C  0.55148502  0.82715044  0.60781083    -0.12200
C491        C  0.55087454  0.86488760  0.58561685     0.01900
C492        C  0.51021907  0.89743608  0.58374287    -0.00400
C493        C  0.47104623  0.89130401  0.60462505    -0.12100
C494        C  0.47159926  0.85346210  0.62692217     0.01800
H495        H  0.58299258  0.80277289  0.60740836     0.14800
H496        H  0.43956158  0.91607854  0.60345088     0.14800
C497        C  0.42907586  0.84879906  0.64694458     0.36400
C498        C  0.59163855  0.86735948  0.56407778     0.36300
N499        N  0.39495716  0.84478134  0.66289519    -0.43900
N500        N  0.62429017  0.86916688  0.54684989    -0.43900
C501        C  0.81999665  0.50689642  0.63326873    -0.00300
C502        C  0.83277486  0.55140905  0.61737118    -0.12200
C503        C  0.87040557  0.55265689  0.59529251     0.01900
C504        C  0.89749516  0.50872528  0.58857673    -0.00400
C505        C  0.88720724  0.46502231  0.60563049    -0.12100
C506        C  0.84974474  0.46395648  0.62801719     0.01800
H507        H  0.81470322  0.58646501  0.62214805     0.14800
H508        H  0.90863810  0.43136484  0.60156975     0.14800
C509        C  0.84311203  0.41814325  0.64540813     0.36400
C510        C  0.87956844  0.59996483  0.57984880     0.36300
N511        N  0.83794527  0.38145098  0.65936803    -0.43900
N512        N  0.88680240  0.63795810  0.56760414    -0.43900
C513        C  0.66249771  0.58562187  0.67708588    -0.00300
C514        C  0.64715839  0.60320070  0.64849513    -0.12200
C515        C  0.61069661  0.63954229  0.64596113     0.01900
C516        C  0.58874761  0.66005072  0.67250632    -0.00400
C517        C  0.60183882  0.64091791  0.70105485    -0.12100
C518        C  0.63781265  0.60354292  0.70360747     0.01800
H519        H  0.66305874  0.58769954  0.62774599     0.14800
H520        H  0.58409315  0.65547272  0.72150594     0.14800
C521        C  0.64731224  0.58459799  0.73375106     0.36400
C522        C  0.59462229  0.65282492  0.61573227     0.36300
N523        N  0.65249366  0.56952598  0.75826774    -0.43900
N524        N  0.58160871  0.66351679  0.59156660    -0.43900
C525        C  0.10761717  0.50931905  0.58090038    -0.00300
C526        C  0.15664714  0.51019531  0.57096321    -0.12200
C527        C  0.19489374  0.51129805  0.59198690     0.01900
C528        C  0.18429462  0.51236724  0.62390894    -0.00400
C529        C  0.13432467  0.51144473  0.63333062    -0.12100
C530        C  0.09641731  0.50990633  0.61221000     0.01800
H531        H  0.16504967  0.50961068  0.54668109     0.14800
H532        H  0.12344060  0.51121425  0.65700459     0.14800
C533        C  0.04603736  0.50852681  0.62321822     0.36400
C534        C  0.24466770  0.51049100  0.57994534     0.36300
N535        N  0.00572625  0.50735401  0.63205522    -0.43900
N536        N  0.28447842  0.50965876  0.57023866    -0.43900
C537        C  0.34152720  0.59559741  0.65979869    -0.00300
C538        C  0.38984982  0.57781703  0.66171577    -0.12200
C539        C  0.42986640  0.61093877  0.66275457     0.01900
C540        C  0.42186444  0.66331583  0.66202352    -0.00400
C541        C  0.37360855  0.68113626  0.65913305    -0.12100
C542        C  0.33353564  0.64793489  0.65814219     0.01800
H543        H  0.39647412  0.53763360  0.66223484     0.14800
H544        H  0.36704499  0.72131977  0.65859339     0.14800
C545        C  0.28469615  0.66879792  0.65729735     0.36400
C546        C  0.47845746  0.58951005  0.66312180     0.36300
N547        N  0.24557427  0.68561807  0.65658015    -0.43900
N548        N  0.51666385  0.57060019  0.66318516    -0.43900
C549        C  0.50069350  0.19264637  0.62478429    -0.00300
C550        C  0.54573281  0.17707948  0.61147797    -0.12200
C551        C  0.54824867  0.13813648  0.59013133     0.01900
C552        C  0.50514536  0.11187420  0.58199094    -0.00400
C553        C  0.46100046  0.12356459  0.59756367    -0.12100
C554        C  0.45864219  0.16247489  0.61914066     0.01800
H555        H  0.58007567  0.19419194  0.61789558     0.14800
H556        H  0.42789620  0.10217001  0.59293611     0.14800
C557        C  0.41258374  0.16983964  0.63532555     0.36400
C558        C  0.59596487  0.12671316  0.57704888     0.36300
N559        N  0.37558591  0.17554372  0.64822741    -0.43900
N560        N  0.63443217  0.11799387  0.56677616    -0.43900
C561        C  0.41157284  0.35318096  0.65857830    -0.00300
C562        C  0.39369557  0.36975081  0.68701789    -0.12200
C563        C  0.35742827  0.40670224  0.68926967     0.01900
C564        C  0.33690060  0.42713786  0.66260169    -0.00400
C565        C  0.35445316  0.41031764  0.63406473    -0.12100
C566        C  0.39179874  0.37424778  0.63181317     0.01800
H567        H  0.40821006  0.35376330  0.70778977     0.14800
H568        H  0.34005550  0.42666417  0.61336396     0.14800
C569        C  0.41082923  0.36197833  0.60184339     0.36400
C570        C  0.34246478  0.42267993  0.71937498     0.36300
N571        N  0.42594726  0.35244986  0.57773183    -0.43900
N572        N  0.33179225  0.43607355  0.74364661    -0.43900
C573        C  0.66153503  0.42131351  0.66942928    -0.00300
C574        C  0.64017081  0.41334336  0.64073732    -0.12200
C575        C  0.60053311  0.37988050  0.63738478     0.01900
C576        C  0.58259526  0.35260517  0.66285599    -0.00400
C577        C  0.60531775  0.35884162  0.69091745    -0.12100
C578        C  0.64267490  0.39422546  0.69485865     0.01800
H579        H  0.65358090  0.43430232  0.62102700     0.14800
H580        H  0.59492458  0.33487060  0.70979339     0.14800
C581        C  0.65957081  0.40151637  0.72553140     0.36400
C582        C  0.57852966  0.37446967  0.60780181     0.36300
N583        N  0.67015737  0.40686841  0.75077367    -0.43900
N584        N  0.56072905  0.36967041  0.58416966    -0.43900
C585        C  0.49911275  0.75485454  0.80220203    -0.00300
C586        C  0.45562008  0.74378196  0.78675977    -0.12200
C587        C  0.45448544  0.74494601  0.75482796     0.01900
C588        C  0.49761914  0.75639631  0.73797467    -0.00400
C589        C  0.54065447  0.76932340  0.75343499    -0.12100
C590        C  0.54163315  0.76886371  0.78540748     0.01800
H591        H  0.42275340  0.73339572  0.79969247     0.14800
H592        H  0.57399753  0.77781322  0.74048531     0.14800
C593        C  0.58751038  0.77896403  0.80040953     0.36400
C594        C  0.40862328  0.73505211  0.73981852     0.36300
N595        N  0.62444228  0.78641092  0.81239818    -0.43900
N596        N  0.37162456  0.72795697  0.72785002    -0.43900
C597        C  0.49719939  0.81001398  0.91289049    -0.00300
C598        C  0.45637931  0.81963808  0.93228237    -0.12200
C599        C  0.45672800  0.85845448  0.95374588     0.01900
C600        C  0.49837495  0.89009299  0.95624033    -0.00400
C601        C  0.53887728  0.88156466  0.93675845    -0.12100
C602        C  0.53848640  0.84275480  0.91512373     0.01800
H603        H  0.42293988  0.79802378  0.93096333     0.14800
H604        H  0.57091791  0.90588561  0.93806729     0.14800
C605        C  0.58110668  0.83812290  0.89529079     0.36400
C606        C  0.41371353  0.86385567  0.97324522     0.36300
N607        N  0.61544920  0.83482828  0.87952222    -0.43900
N608        N  0.37912743  0.86785860  0.48875403    -0.43900
C609        C  0.76066806  0.50236000  0.80695166    -0.00300
C610        C  0.76897348  0.45649576  0.79211028    -0.12200
C611        C  0.77179674  0.45444833  0.76020869     0.01900
C612        C  0.76384650  0.49843882  0.74308780    -0.00400
C613        C  0.76032523  0.54478741  0.75798167    -0.12100
C614        C  0.75917104  0.54713317  0.78982999     0.01800
H615        H  0.77212557  0.42225898  0.80542404     0.14800
H616        H  0.75677106  0.57899149  0.74467796     0.14800
C617        C  0.75623175  0.59566670  0.80437450     0.36400
C618        C  0.78149757  0.40687502  0.74559226     0.36300
N619        N  0.75433949  0.63471991  0.81589526    -0.43900
N620        N  0.78929836  0.36860965  0.73403963    -0.43900
C621        C  0.81257186  0.50093133  0.91786930    -0.00300
C622        C  0.85915214  0.52136595  0.91000793    -0.12200
C623        C  0.89745264  0.52242779  0.93083361     0.01900
C624        C  0.89006726  0.50258010  0.96025547    -0.00400
C625        C  0.84336686  0.48524149  0.96915727    -0.12100
C626        C  0.80420182  0.48632961  0.94876202     0.01800
H627        H  0.86595681  0.53843827  0.88795893     0.14800
H628        H  0.83705661  0.47273452  0.99248268     0.14800
C629        C  0.75570159  0.47480308  0.96081697     0.36400
C630        C  0.94414373  0.54422671  0.92151738     0.36300
N631        N  0.71695189  0.46583273  0.97075413    -0.43900
N632        N  0.98149390  0.56193765  0.91423791    -0.43900
C633        C  0.65834339  0.58163637  0.87674059    -0.00300
C634        C  0.64214469  0.59852149  0.84827288    -0.12200
C635        C  0.60430189  0.63370743  0.84585024     0.01900
C636        C  0.58167768  0.65336179  0.87250685    -0.00400
C637        C  0.59705028  0.63535258  0.90102491    -0.12100
C638        C  0.63463726  0.59981812  0.90337969     0.01800
H639        H  0.65939573  0.58444954  0.82758806     0.14800
H640        H  0.57897386  0.64844599  0.92172393     0.14800
C641        C  0.64615438  0.58116295  0.93337309     0.36400
C642        C  0.59059518  0.64869254  0.81553351     0.36300
N643        N  0.65512292  0.56651550  0.95752673    -0.43900
N644        N  0.58005023  0.65893162  0.79082366    -0.43900
C645        C  0.24510026  0.51646216  0.73420632    -0.00300
C646        C  0.21310287  0.48123435  0.74812176    -0.12200
C647        C  0.21008801  0.47657643  0.77996020     0.01900
C648        C  0.23975195  0.50732354  0.79831778    -0.00400
C649        C  0.26972488  0.54418392  0.78446835    -0.12100
C650        C  0.27230509  0.54929922  0.75276450     0.01800
H651        H  0.19188319  0.45589753  0.73405779     0.14800
H652        H  0.29180256  0.56875354  0.79854529     0.14800
C653        C  0.30227839  0.58933683  0.74013343     0.36400
C654        C  0.17874681  0.43798332  0.79301533     0.36300
N655        N  0.32630633  0.62192664  0.73057954    -0.43900
N656        N  0.15352822  0.40687223  0.80324118    -0.43900
C657        C  0.10275417  0.50379235  0.95379382    -0.00300
C658        C  0.10633285  0.46436277  0.93271891    -0.12200
C659        C  0.14403243  0.46355789  0.91043135     0.01900
C660        C  0.17998981  0.50259926  0.90900433    -0.00400
C661        C  0.17514888  0.54240054  0.93006148    -0.12100
C662        C  0.13790222  0.54294720  0.95232048     0.01800
H663        H  0.07943368  0.43410890  0.93355273     0.14800
H664        H  0.19996619  0.57393916  0.92999072     0.14800
C665        C  0.13839804  0.58335305  0.97434113     0.36400
C666        C  0.14507548  0.42160195  0.88959023     0.36300
N667        N  0.13888371  0.61552184  0.99206325    -0.43900
N668        N  0.14592825  0.38772548  0.87308689    -0.43900
C669        C  0.33999340  0.57842285  0.86436895    -0.00300
C670        C  0.32708212  0.62918550  0.86816799    -0.12200
C671        C  0.36285947  0.66709808  0.86906433     0.01900
C672        C  0.41321858  0.65455544  0.86670654    -0.00400
C673        C  0.42608656  0.60434166  0.86124573    -0.12100
C674        C  0.39016641  0.56650655  0.85963084     0.01800
H675        H  0.28864081  0.63943425  0.87035281     0.14800
H676        H  0.46454441  0.59426232  0.85889287     0.14800
C677        C  0.40653758  0.51615965  0.85326851     0.36400
C678        C  0.34658915  0.71856775  0.87157331     0.36300
N679        N  0.42022034  0.47629384  0.84714638    -0.43900
N680        N  0.33365622  0.75981563  0.87368311    -0.43900
C681        C  0.49251615  0.26549223  0.73301967    -0.00300
C682        C  0.51581443  0.30433633  0.74902077    -0.12200
C683        C  0.52150545  0.30301035  0.78058500     0.01900
C684        C  0.49948180  0.26403687  0.79813382    -0.00400
C685        C  0.47401475  0.22587836  0.78249723    -0.12100
C686        C  0.47054787  0.22608600  0.75041479     0.01800
H687        H  0.53063436  0.33648588  0.73712515     0.14800
H688        H  0.45547365  0.19634770  0.79538062     0.14800
C689        C  0.44115610  0.18737731  0.73646111     0.36400
C690        C  0.55242793  0.34155704  0.79348176     0.36300
N691        N  0.41749514  0.15631640  0.72535091    -0.43900
N692        N  0.57720148  0.37319282  0.80297438    -0.43900
C693        C  0.49606049  0.18341016  0.90477756    -0.00300
C694        C  0.45207459  0.16537265  0.91846168    -0.12200
C695        C  0.45196542  0.12826527  0.94108193     0.01900
C696        C  0.49653664  0.10574049  0.94984700    -0.00400
C697        C  0.53985521  0.11924405  0.93372624    -0.12100
C698        C  0.53980140  0.15664675  0.91099147     0.01800
H699        H  0.41682267  0.17961534  0.91165126     0.14800
H700        H  0.57412458  0.10063729  0.93890067     0.14800
C701        C  0.58513316  0.16623352  0.89430610     0.36400
C702        C  0.40516425  0.11530803  0.95512658     0.36300
N703        N  0.62145732  0.17382975  0.88092734    -0.43900
N704        N  0.36756790  0.10525638  0.96634592    -0.43900
C705        C  0.40766374  0.34137059  0.87094093    -0.00300
C706        C  0.38152096  0.34749414  0.84387083    -0.12200
C707        C  0.34120211  0.37997999  0.84279142     0.01900
C708        C  0.32801043  0.40832717  0.86873870    -0.00400
C709        C  0.35328160  0.40097196  0.89602471    -0.12100
C710        C  0.39238920  0.36723887  0.89743907     0.01800
H711        H  0.39197060  0.32602256  0.82380459     0.14800
H712        H  0.34326649  0.42265638  0.91607721     0.14800
C713        C  0.41766093  0.36152834  0.92596041     0.36400
C714        C  0.31192561  0.38111056  0.81566034     0.36300
N715        N  0.43809039  0.35709097  0.94876243    -0.43900
N716        N  0.28761390  0.38086740  0.79424641    -0.43900
C717        C  0.58035162  0.34714156  0.87459036    -0.00300
C718        C  0.62878214  0.32956241  0.87083467    -0.12200
C719        C  0.66900163  0.36282616  0.87104859     0.01900
C720        C  0.66093343  0.41476035  0.87476444    -0.00400
C721        C  0.61271679  0.43224739  0.87856363    -0.12100
C722        C  0.57267191  0.39902278  0.87888214     0.01800
H723        H  0.63513361  0.28974323  0.86739576     0.14800
H724        H  0.60639460  0.47207831  0.88208561     0.14800
C725        C  0.52480536  0.41917940  0.88577887     0.36400
C726        C  0.71787088  0.34300620  0.86654891     0.36300
N727        N  0.48725487  0.43682957  0.89201595    -0.43900
N728        N  0.75704303  0.32704195  0.86301509    -0.43900
loop_ 
_geom_bond_atom_site_label_1 
_geom_bond_atom_site_label_2 
_geom_bond_distance 
_geom_bond_site_symmetry_2 
_ccdc_geom_bond_type 
C1            C2   1.545       .  S
C1            C7   1.541       .  S
C1            C5   1.546       .  S
C1          C329   1.544       .  S
C2            H9   1.082       .  S
C2            C3   1.355       .  D
C3            C4   1.528       .  S
C3          C341   1.477       .  S
C4            C8   1.542       .  S
C4            C6   1.545       .  S
C4           H10   1.106       .  S
C5           H11   1.085       .  S
C5            C6   1.377       .  D
C6          C320   1.504       .  S
C7           H12   1.086       .  S
C7            C8   1.364       .  D
C8          C353   1.487       .  S
C13          C14   1.552       .  S
C13          C19   1.537       .  S
C13          C17   1.543       .  S
C13         C296   1.543       .  S
C14          H21   1.078       .  S
C14          C15   1.366       .  D
C15          C16   1.533       .  S
C15         C305   1.495       .  S
C16          C20   1.536       .  S
C16          C18   1.531       .  S
C16          H22   1.108       .  S
C17          H23   1.086       .  S
C17          C18   1.367       .  D
C18         C284   1.480       .  S
C19          H24   1.086       .  S
C19          C20   1.363       .  D
C20         C344   1.479       .  S
C25          C26   1.546       .  S
C25          C31   1.540       .  S
C25          C29   1.545       .  S
C25         C257   1.534       .  S
C26          H33   1.085       .  S
C26          C27   1.366       .  D
C27          C28   1.532       .  S
C27         C356   1.482       .  S
C28          C32   1.535       .  S
C28          C30   1.532       .  S
C28          H34   1.111       .  S
C29          H35   1.084       .  S
C29          C30   1.357       .  D
C30         C245   1.471       .  S
C31          H36   1.085       .  S
C31          C32   1.368       .  D
C32         C269   1.491       .  S
C37          C38   1.537       .  S
C37          C43   1.549       .  S
C37          C41   1.541       .  S
C37         C233   1.544       .  S
C38          H45   1.086       .  S
C38          C39   1.370       .  D
C39          C40   1.543       .  S
C39         C272   1.496       .  S
C40          C44   1.532       .  S
C40          C42   1.532       .  S
C40          H46   1.108       .  S
C41          H47   1.086       .  S
C41          C42   1.364       .  D
C42         C221   1.477       .  S
C43          H48   1.079       .  S
C43          C44   1.364       .  D
C44         C308   1.489       .  S
C49          C50   1.545       .  S
C49          C55   1.546       .  S
C49          C53   1.544       .  S
C49         C185   1.545       .  S
C50          H57   1.082       .  S
C50          C51   1.355       .  D
C51          C52   1.534       .  S
C51         C212   1.482       .  S
C52          C56   1.537       .  S
C52          C54   1.545       .  S
C52          H58   1.108       .  S
C53          H59   1.084       .  S
C53          C54   1.375       .  D
C54         C317   1.510       .  S
C55          H60   1.084       .  S
C55          C56   1.368       .  D
C56         C197   1.492       .  S
C61          C62   1.539       .  S
C61          C67   1.541       .  S
C61          C65   1.548       .  S
C61         C164   1.538       .  S
C62          H69   1.086       .  S
C62          C63   1.366       .  D
C63          C64   1.538       .  S
C63         C200   1.492       .  S
C64          C68   1.534       .  S
C64          C66   1.536       .  S
C64          H70   1.108       .  S
C65          H71   1.080       .  S
C65          C66   1.362       .  D
C66         C281   1.485       .  S
C67          H72   1.085       .  S
C67          C68   1.365       .  D
C68         C173   1.485       .  S
C73          C74   1.548       .  S
C73          C79   1.543       .  S
C73          C77   1.532       .  S
C73         C137   1.542       .  S
C74          H81   1.079       .  S
C74          C75   1.369       .  D
C75          C76   1.534       .  S
C75         C149   1.497       .  S
C76          C80   1.537       .  S
C76          C78   1.541       .  S
C76          H82   1.105       .  S
C77          H83   1.086       .  S
C77          C78   1.360       .  D
C78         C248   1.472       .  S
C79          H84   1.086       .  S
C79          C80   1.369       .  D
C80         C209   1.490       .  S
C85          C86   1.538       .  S
C85          C91   1.546       .  S
C85          C89   1.540       .  S
C85         C125   1.538       .  S
C86          H93   1.087       .  S
C86          C87   1.362       .  D
C87          C88   1.536       .  S
C87         C176   1.485       .  S
C88          C92   1.535       .  S
C88          C90   1.539       .  S
C88          H94   1.111       .  S
C89          H95   1.086       .  S
C89          C90   1.365       .  D
C90         C224   1.479       .  S
C91          H96   1.080       .  S
C91          C92   1.364       .  D
C92         C152   1.485       .  S
O97         C107   1.263       .  A
O97         V469   1.900       .  S
O98         C108   1.263       .  A
O98         V105   1.898   1_455  S
O99         C109   1.266       .  A
O99         V105   1.905       .  S
O100        C110   1.266       .  A
O100        V469   1.909   1_455  S
O101        C110   1.263       .  A
O101        V470   1.888   1_455  S
O102        C109   1.263       .  A
O102        V106   1.892       .  S
O103        C108   1.261       .  A
O103        V106   1.893   1_455  S
O104        C107   1.261       .  A
O104        V470   1.890       .  S
V105        O461   1.900   1_554  S
V105        O464   1.909   1_654  S
V105        V106   2.087       .  T
V106        O465   1.888   1_654  S
V106        O468   1.890   1_554  S
C107        C260   1.466       .  S
C108        C161   1.463       .  S
C109        C140   1.490       .  S
C110        C293   1.484       .  S
O111        C121   1.265       .  A
O111        V119   1.901   1_565  S
O112        C122   1.266       .  A
O112        V483   1.900       .  S
O113        C123   1.263       .  A
O113        V483   1.894   1_565  S
O114        C124   1.264       .  A
O114        V119   1.897       .  S
O115        C124   1.267       .  A
O115        V120   1.905       .  S
O116        C123   1.267       .  A
O116        V484   1.907   1_565  S
O117        C122   1.264       .  A
O117        V484   1.901       .  S
O118        C121   1.263       .  A
O118        V120   1.893   1_565  S
V119        O476   1.900   1_554  S
V119        O477   1.894   1_544  S
V119        V120   2.083       .  T
V120        O480   1.907   1_544  S
V120        O481   1.901   1_554  S
C121        C128   1.483       .  S
C122        C332   1.494       .  S
C123        C236   1.489       .  S
C124        C188   1.494       .  S
C125        C126   1.412       .  A
C125        C130   1.422       .  A
C126        C127   1.396       .  A
C126        H131   1.077       .  S
C127        C128   1.411       .  A
C127        C134   1.446       .  S
C128        C129   1.402       .  A
C129        C130   1.401       .  A
C129        H132   1.085       .  S
C130        C133   1.445       .  S
C133        N135   1.157       .  T
C134        N136   1.157       .  T
C137        C138   1.411       .  A
C137        C142   1.420       .  A
C138        C139   1.398       .  A
C138        H143   1.076       .  S
C139        C140   1.414       .  A
C139        C146   1.446       .  S
C140        C141   1.405       .  A
C141        C142   1.404       .  A
C141        H144   1.084       .  S
C142        C145   1.445       .  S
C145        N147   1.157       .  T
C146        N148   1.157       .  T
C149        C150   1.407       .  A
C149        C154   1.418       .  A
C150        C151   1.394       .  A
C150        H155   1.084       .  S
C151        C152   1.412       .  A
C151        C158   1.445       .  S
C152        C153   1.402       .  A
C153        C154   1.404       .  A
C153        H156   1.085       .  S
C154        C157   1.441       .  S
C157        N159   1.157       .  T
C158        N160   1.157       .  T
C161        C162   1.396       .  A
C161        C166   1.401       .  A
C162        C163   1.401       .  A
C162        H167   1.085       .  S
C163        C164   1.425       .  A
C163        C170   1.446       .  S
C164        C165   1.414       .  A
C165        C166   1.397       .  A
C165        H168   1.075       .  S
C166        C169   1.446       .  S
C169        N171   1.157       .  T
C170        N172   1.157       .  T
C173        C174   1.403       .  A
C173        C178   1.412       .  A
C174        C175   1.398       .  A
C174        H179   1.085       .  S
C175        C176   1.412       .  A
C175        C182   1.442       .  S
C176        C177   1.405       .  A
C177        C178   1.400       .  A
C177        H180   1.085       .  S
C178        C181   1.443       .  S
C181        N183   1.157       .  T
C182        N184   1.157       .  T
C185        C186   1.413       .  A
C185        C190   1.419       .  A
C186        C187   1.399       .  A
C186        H191   1.078       .  S
C187        C188   1.412       .  A
C187        C194   1.445       .  S
C188        C189   1.408       .  A
C189        C190   1.405       .  A
C189        H192   1.084       .  S
C190        C193   1.444       .  S
C193        N195   1.157       .  T
C194        N196   1.157       .  T
C197        C198   1.404       .  A
C197        C202   1.414       .  A
C198        C199   1.399       .  A
C198        H203   1.085       .  S
C199        C200   1.412       .  A
C199        C206   1.441       .  S
C200        C201   1.407       .  A
C201        C202   1.403       .  A
C201        H204   1.085       .  S
C202        C205   1.443       .  S
C205        N207   1.157       .  T
C206        N208   1.156       .  T
C209        C210   1.410       .  A
C209        C214   1.414       .  A
C210        C211   1.404       .  A
C210        H215   1.084       .  S
C211        C212   1.409       .  A
C211        C218   1.444       .  S
C212        C213   1.395       .  A
C213        C214   1.394       .  A
C213        H216   1.077       .  S
C214        C217   1.441       .  S
C217        N219   1.157       .  T
C218        N220   1.157       .  T
C221        C222   1.402       .  A
C221        C226   1.409       .  A
C222        C223   1.401       .  A
C222        H227   1.085       .  S
C223        C224   1.408       .  A
C223        C230   1.442       .  S
C224        C225   1.403       .  A
C225        C226   1.402       .  A
C225        H228   1.085       .  S
C226        C229   1.444       .  S
C229        N231   1.157       .  T
C230        N232   1.157       .  T
C233        C234   1.413       .  A
C233        C238   1.422       .  A
C234        C235   1.399       .  A
C234        H239   1.076       .  S
C235        C236   1.413       .  A
C235        C242   1.446       .  S
C236        C237   1.403       .  A
C237        C238   1.404       .  A
C237        H240   1.085       .  S
C238        C241   1.444       .  S
C241        N243   1.157       .  T
C242        N608   1.157       .  T
N244        C606   1.157       .  T
C245        C246   1.402       .  A
C245        C250   1.407       .  A
C246        C247   1.401       .  A
C246        H251   1.085       .  S
C247        C248   1.408       .  A
C247        C254   1.444       .  S
C248        C249   1.400       .  A
C249        C250   1.398       .  A
C249        H252   1.085       .  S
C250        C253   1.443       .  S
C253        N255   1.157       .  T
C254        N256   1.157       .  T
C257        C258   1.413       .  A
C257        C262   1.422       .  A
C258        C259   1.396       .  A
C258        H263   1.080       .  S
C259        C260   1.403       .  A
C259        C266   1.446       .  S
C260        C261   1.398       .  A
C261        C262   1.401       .  A
C261        H264   1.085       .  S
C262        C265   1.444       .  S
C265        N267   1.157       .  T
C266        N268   1.157       .  T
C269        C270   1.403       .  A
C269        C274   1.413       .  A
C270        C271   1.400       .  A
C270        H275   1.083       .  S
C271        C272   1.415       .  A
C271        C278   1.442       .  S
C272        C273   1.408       .  A
C273        C274   1.401       .  A
C273        H276   1.084       .  S
C274        C277   1.444       .  S
C277        N279   1.157       .  T
C278        N280   1.157       .  T
C281        C282   1.407       .  A
C281        C286   1.410       .  A
C282        C283   1.402       .  A
C282        H287   1.085       .  S
C283        C284   1.408       .  A
C283        C290   1.442       .  S
C284        C285   1.402       .  A
C285        C286   1.397       .  A
C285        H288   1.085       .  S
C286        C289   1.442       .  S
C289        N291   1.156       .  T
C290        N292   1.157       .  T
C293        C294   1.402       .  A
C293        C298   1.410       .  A
C294        C295   1.405       .  A
C294        H299   1.085       .  S
C295        C296   1.423       .  A
C295        C302   1.444       .  S
C296        C297   1.412       .  A
C297        C298   1.396       .  A
C297        H300   1.074       .  S
C298        C301   1.447       .  S
C301        N303   1.157       .  T
C302        N304   1.157       .  T
C305        C306   1.407       .  A
C305        C310   1.415       .  A
C306        C307   1.398       .  A
C306        H311   1.085       .  S
C307        C308   1.414       .  A
C307        C314   1.445       .  S
C308        C309   1.403       .  A
C309        C310   1.401       .  A
C309        H312   1.085       .  S
C310        C313   1.440       .  S
C313        N315   1.157       .  T
C314        N316   1.157       .  T
C317        C318   1.404       .  A
C317        C322   1.418       .  A
C318        C319   1.395       .  A
C318        H323   1.074       .  S
C319        C320   1.414       .  A
C319        C326   1.444       .  S
C320        C321   1.411       .  A
C321        C322   1.411       .  A
C321        H324   1.084       .  S
C322        C325   1.443       .  S
C325        N327   1.157       .  T
C326        N328   1.157       .  T
C329        C330   1.411       .  A
C329        C334   1.419       .  A
C330        C331   1.397       .  A
C330        H335   1.079       .  S
C331        C332   1.413       .  A
C331        C338   1.445       .  S
C332        C333   1.409       .  A
C333        C334   1.406       .  A
C333        H336   1.084       .  S
C334        C337   1.445       .  S
C337        N339   1.157       .  T
C338        N340   1.157       .  T
C341        C342   1.402       .  A
C341        C346   1.410       .  A
C342        C343   1.401       .  A
C342        H347   1.085       .  S
C343        C344   1.409       .  A
C343        C350   1.442       .  S
C344        C345   1.402       .  A
C345        C346   1.397       .  A
C345        H348   1.085       .  S
C346        C349   1.444       .  S
C349        N351   1.157       .  T
C350        N352   1.156       .  T
C353        C354   1.407       .  A
C353        C358   1.409       .  A
C354        C355   1.403       .  A
C354        H359   1.085       .  S
C355        C356   1.409       .  A
C355        C362   1.443       .  S
C356        C357   1.401       .  A
C357        C358   1.399       .  A
C357        H360   1.085       .  S
C358        C361   1.439       .  S
C361        N363   1.156       .  T
C362        N364   1.157       .  T
C365        C366   1.545       .  S
C365        C371   1.541       .  S
C365        C369   1.546       .  S
C365        C693   1.544       .  S
C366        H373   1.082       .  S
C366        C367   1.355       .  D
C367        C368   1.528       .  S
C367        C705   1.477       .  S
C368        C372   1.542       .  S
C368        C370   1.545       .  S
C368        H374   1.106       .  S
C369        H375   1.085       .  S
C369        C370   1.377       .  D
C370        C684   1.504       .  S
C371        H376   1.086       .  S
C371        C372   1.364       .  D
C372        C717   1.487       .  S
C377        C378   1.552       .  S
C377        C383   1.537       .  S
C377        C381   1.543       .  S
C377        C660   1.543       .  S
C378        H385   1.078       .  S
C378        C379   1.366       .  D
C379        C380   1.533       .  S
C379        C669   1.495       .  S
C380        C384   1.536       .  S
C380        C382   1.531       .  S
C380        H386   1.108       .  S
C381        H387   1.086       .  S
C381        C382   1.367       .  D
C382        C648   1.480       .  S
C383        H388   1.086       .  S
C383        C384   1.363       .  D
C384        C708   1.479       .  S
C389        C390   1.546       .  S
C389        C395   1.540       .  S
C389        C393   1.545       .  S
C389        C621   1.534       .  S
C390        H397   1.085       .  S
C390        C391   1.366       .  D
C391        C392   1.532       .  S
C391        C720   1.482       .  S
C392        C396   1.535       .  S
C392        C394   1.532       .  S
C392        H398   1.111       .  S
C393        H399   1.084       .  S
C393        C394   1.357       .  D
C394        C609   1.471       .  S
C395        H400   1.085       .  S
C395        C396   1.368       .  D
C396        C633   1.491       .  S
C401        C402   1.537       .  S
C401        C407   1.549       .  S
C401        C405   1.541       .  S
C401        C597   1.544       .  S
C402        H409   1.086       .  S
C402        C403   1.370       .  D
C403        C404   1.543       .  S
C403        C636   1.496       .  S
C404        C408   1.532       .  S
C404        C406   1.532       .  S
C404        H410   1.108       .  S
C405        H411   1.086       .  S
C405        C406   1.364       .  D
C406        C585   1.477       .  S
C407        H412   1.079       .  S
C407        C408   1.364       .  D
C408        C672   1.489       .  S
C413        C414   1.545       .  S
C413        C419   1.546       .  S
C413        C417   1.544       .  S
C413        C549   1.545       .  S
C414        H421   1.082       .  S
C414        C415   1.355       .  D
C415        C416   1.534       .  S
C415        C576   1.482       .  S
C416        C420   1.537       .  S
C416        C418   1.545       .  S
C416        H422   1.108       .  S
C417        H423   1.084       .  S
C417        C418   1.375       .  D
C418        C681   1.510       .  S
C419        H424   1.084       .  S
C419        C420   1.368       .  D
C420        C561   1.492       .  S
C425        C426   1.539       .  S
C425        C431   1.541       .  S
C425        C429   1.548       .  S
C425        C528   1.538       .  S
C426        H433   1.086       .  S
C426        C427   1.366       .  D
C427        C428   1.538       .  S
C427        C564   1.492       .  S
C428        C432   1.534       .  S
C428        C430   1.536       .  S
C428        H434   1.108       .  S
C429        H435   1.080       .  S
C429        C430   1.362       .  D
C430        C645   1.485       .  S
C431        H436   1.085       .  S
C431        C432   1.365       .  D
C432        C537   1.485       .  S
C437        C438   1.548       .  S
C437        C443   1.543       .  S
C437        C441   1.532       .  S
C437        C501   1.542       .  S
C438        H445   1.079       .  S
C438        C439   1.369       .  D
C439        C440   1.534       .  S
C439        C513   1.497       .  S
C440        C444   1.537       .  S
C440        C442   1.541       .  S
C440        H446   1.105       .  S
C441        H447   1.086       .  S
C441        C442   1.360       .  D
C442        C612   1.472       .  S
C443        H448   1.086       .  S
C443        C444   1.369       .  D
C444        C573   1.490       .  S
C449        C450   1.538       .  S
C449        C455   1.546       .  S
C449        C453   1.540       .  S
C449        C489   1.538       .  S
C450        H457   1.087       .  S
C450        C451   1.362       .  D
C451        C452   1.536       .  S
C451        C540   1.485       .  S
C452        C456   1.535       .  S
C452        C454   1.539       .  S
C452        H458   1.111       .  S
C453        H459   1.086       .  S
C453        C454   1.365       .  D
C454        C588   1.479       .  S
C455        H460   1.080       .  S
C455        C456   1.364       .  D
C456        C516   1.485       .  S
O461        C471   1.263       .  A
O462        C472   1.263       .  A
O462        V469   1.898   1_455  S
O463        C473   1.266       .  A
O463        V469   1.905       .  S
O464        C474   1.266       .  A
O465        C474   1.263       .  A
O466        C473   1.263       .  A
O466        V470   1.892       .  S
O467        C472   1.261       .  A
O467        V470   1.893   1_455  S
O468        C471   1.261       .  A
V469        V470   2.087       .  T
C471        C624   1.466       .  S
C472        C525   1.463       .  S
C473        C504   1.490       .  S
C474        C657   1.484       .  S
O475        C485   1.265       .  A
O475        V483   1.901   1_565  S
O476        C486   1.266       .  A
O477        C487   1.263       .  A
O478        C488   1.264       .  A
O478        V483   1.897       .  S
O479        C488   1.267       .  A
O479        V484   1.905       .  S
O480        C487   1.267       .  A
O481        C486   1.264       .  A
O482        C485   1.263       .  A
O482        V484   1.893   1_565  S
V483        V484   2.083       .  T
C485        C492   1.483       .  S
C486        C696   1.494       .  S
C487        C600   1.489       .  S
C488        C552   1.494       .  S
C489        C490   1.412       .  A
C489        C494   1.422       .  A
C490        C491   1.396       .  A
C490        H495   1.077       .  S
C491        C492   1.411       .  A
C491        C498   1.446       .  S
C492        C493   1.402       .  A
C493        C494   1.401       .  A
C493        H496   1.085       .  S
C494        C497   1.445       .  S
C497        N499   1.157       .  T
C498        N500   1.157       .  T
C501        C502   1.411       .  A
C501        C506   1.420       .  A
C502        C503   1.398       .  A
C502        H507   1.076       .  S
C503        C504   1.414       .  A
C503        C510   1.446       .  S
C504        C505   1.405       .  A
C505        C506   1.404       .  A
C505        H508   1.084       .  S
C506        C509   1.445       .  S
C509        N511   1.157       .  T
C510        N512   1.157       .  T
C513        C514   1.407       .  A
C513        C518   1.418       .  A
C514        C515   1.394       .  A
C514        H519   1.084       .  S
C515        C516   1.412       .  A
C515        C522   1.445       .  S
C516        C517   1.402       .  A
C517        C518   1.404       .  A
C517        H520   1.085       .  S
C518        C521   1.441       .  S
C521        N523   1.157       .  T
C522        N524   1.157       .  T
C525        C526   1.396       .  A
C525        C530   1.401       .  A
C526        C527   1.401       .  A
C526        H531   1.085       .  S
C527        C528   1.425       .  A
C527        C534   1.446       .  S
C528        C529   1.414       .  A
C529        C530   1.397       .  A
C529        H532   1.075       .  S
C530        C533   1.446       .  S
C533        N535   1.157       .  T
C534        N536   1.157       .  T
C537        C538   1.403       .  A
C537        C542   1.412       .  A
C538        C539   1.398       .  A
C538        H543   1.085       .  S
C539        C540   1.412       .  A
C539        C546   1.442       .  S
C540        C541   1.405       .  A
C541        C542   1.400       .  A
C541        H544   1.085       .  S
C542        C545   1.443       .  S
C545        N547   1.157       .  T
C546        N548   1.157       .  T
C549        C550   1.413       .  A
C549        C554   1.419       .  A
C550        C551   1.399       .  A
C550        H555   1.078       .  S
C551        C552   1.412       .  A
C551        C558   1.445       .  S
C552        C553   1.408       .  A
C553        C554   1.405       .  A
C553        H556   1.084       .  S
C554        C557   1.444       .  S
C557        N559   1.157       .  T
C558        N560   1.157       .  T
C561        C562   1.404       .  A
C561        C566   1.414       .  A
C562        C563   1.399       .  A
C562        H567   1.085       .  S
C563        C564   1.412       .  A
C563        C570   1.441       .  S
C564        C565   1.407       .  A
C565        C566   1.403       .  A
C565        H568   1.085       .  S
C566        C569   1.443       .  S
C569        N571   1.157       .  T
C570        N572   1.156       .  T
C573        C574   1.410       .  A
C573        C578   1.414       .  A
C574        C575   1.404       .  A
C574        H579   1.084       .  S
C575        C576   1.409       .  A
C575        C582   1.444       .  S
C576        C577   1.395       .  A
C577        C578   1.394       .  A
C577        H580   1.077       .  S
C578        C581   1.441       .  S
C581        N583   1.157       .  T
C582        N584   1.157       .  T
C585        C586   1.402       .  A
C585        C590   1.409       .  A
C586        C587   1.401       .  A
C586        H591   1.085       .  S
C587        C588   1.408       .  A
C587        C594   1.442       .  S
C588        C589   1.403       .  A
C589        C590   1.402       .  A
C589        H592   1.085       .  S
C590        C593   1.444       .  S
C593        N595   1.157       .  T
C594        N596   1.157       .  T
C597        C598   1.413       .  A
C597        C602   1.422       .  A
C598        C599   1.399       .  A
C598        H603   1.076       .  S
C599        C600   1.413       .  A
C599        C606   1.446       .  S
C600        C601   1.403       .  A
C601        C602   1.404       .  A
C601        H604   1.085       .  S
C602        C605   1.444       .  S
C605        N607   1.157       .  T
C609        C610   1.402       .  A
C609        C614   1.407       .  A
C610        C611   1.401       .  A
C610        H615   1.085       .  S
C611        C612   1.408       .  A
C611        C618   1.444       .  S
C612        C613   1.400       .  A
C613        C614   1.398       .  A
C613        H616   1.085       .  S
C614        C617   1.443       .  S
C617        N619   1.157       .  T
C618        N620   1.157       .  T
C621        C622   1.413       .  A
C621        C626   1.422       .  A
C622        C623   1.396       .  A
C622        H627   1.080       .  S
C623        C624   1.403       .  A
C623        C630   1.446       .  S
C624        C625   1.398       .  A
C625        C626   1.401       .  A
C625        H628   1.085       .  S
C626        C629   1.444       .  S
C629        N631   1.157       .  T
C630        N632   1.157       .  T
C633        C634   1.403       .  A
C633        C638   1.413       .  A
C634        C635   1.400       .  A
C634        H639   1.083       .  S
C635        C636   1.415       .  A
C635        C642   1.442       .  S
C636        C637   1.408       .  A
C637        C638   1.401       .  A
C637        H640   1.084       .  S
C638        C641   1.444       .  S
C641        N643   1.157       .  T
C642        N644   1.157       .  T
C645        C646   1.407       .  A
C645        C650   1.410       .  A
C646        C647   1.402       .  A
C646        H651   1.085       .  S
C647        C648   1.408       .  A
C647        C654   1.442       .  S
C648        C649   1.402       .  A
C649        C650   1.397       .  A
C649        H652   1.085       .  S
C650        C653   1.442       .  S
C653        N655   1.156       .  T
C654        N656   1.157       .  T
C657        C658   1.402       .  A
C657        C662   1.410       .  A
C658        C659   1.405       .  A
C658        H663   1.085       .  S
C659        C660   1.423       .  A
C659        C666   1.444       .  S
C660        C661   1.412       .  A
C661        C662   1.396       .  A
C661        H664   1.074       .  S
C662        C665   1.447       .  S
C665        N667   1.157       .  T
C666        N668   1.157       .  T
C669        C670   1.407       .  A
C669        C674   1.415       .  A
C670        C671   1.398       .  A
C670        H675   1.085       .  S
C671        C672   1.414       .  A
C671        C678   1.445       .  S
C672        C673   1.403       .  A
C673        C674   1.401       .  A
C673        H676   1.085       .  S
C674        C677   1.440       .  S
C677        N679   1.157       .  T
C678        N680   1.157       .  T
C681        C682   1.404       .  A
C681        C686   1.418       .  A
C682        C683   1.395       .  A
C682        H687   1.074       .  S
C683        C684   1.414       .  A
C683        C690   1.444       .  S
C684        C685   1.411       .  A
C685        C686   1.411       .  A
C685        H688   1.084       .  S
C686        C689   1.443       .  S
C689        N691   1.157       .  T
C690        N692   1.157       .  T
C693        C694   1.411       .  A
C693        C698   1.419       .  A
C694        C695   1.397       .  A
C694        H699   1.079       .  S
C695        C696   1.413       .  A
C695        C702   1.445       .  S
C696        C697   1.409       .  A
C697        C698   1.406       .  A
C697        H700   1.084       .  S
C698        C701   1.445       .  S
C701        N703   1.157       .  T
C702        N704   1.157       .  T
C705        C706   1.402       .  A
C705        C710   1.410       .  A
C706        C707   1.401       .  A
C706        H711   1.085       .  S
C707        C708   1.409       .  A
C707        C714   1.442       .  S
C708        C709   1.402       .  A
C709        C710   1.397       .  A
C709        H712   1.085       .  S
C710        C713   1.444       .  S
C713        N715   1.157       .  T
C714        N716   1.156       .  T
C717        C718   1.407       .  A
C717        C722   1.409       .  A
C718        C719   1.403       .  A
C718        H723   1.085       .  S
C719        C720   1.409       .  A
C719        C726   1.443       .  S
C720        C721   1.401       .  A
C721        C722   1.399       .  A
C721        H724   1.085       .  S
C722        C725   1.439       .  S
C725        N727   1.156       .  T
C726        N728   1.157       .  T
