geometry optimzed in LAMMPS
_audit_creation_date              2020-11-30 
_audit_creation_method            'lammps2cif' 
_symmetry_space_group_name_H-M    'P1' 
_symmetry_Int_Tables_number       1 
_symmetry_cell_setting            triclinic 
loop_ 
_symmetry_equiv_pos_as_xyz 
  x,y,z 
_cell_length_a                    43.07628808 
_cell_length_b                    42.71309851931081 
_cell_length_c                    29.474808092110944 
_cell_angle_alpha                 89.56806890623074 
_cell_angle_beta                  88.02948119068449 
_cell_angle_gamma                 89.64965351842805 
loop_ 
_atom_site_label 
_atom_site_type_symbol 
_atom_site_fract_x 
_atom_site_fract_y 
_atom_site_fract_z 
_atom_site_charge 
In1        In  0.13008722  0.36923470  0.64572875     1.36900
C2          C  0.09440661  0.41794144  0.66012884     0.77100
O3          O  0.08399200  0.34741212  0.66179551    -0.61300
O4          O  0.12277465  0.32379361  0.68776196    -0.52200
C5          C  0.13452719  0.35885999  0.55713724     0.69800
O6          O  0.11024219  0.36624059  0.57896289    -0.47100
C7          C  0.17706981  0.39673817  0.68768304     0.74500
O8          O  0.10977388  0.41516257  0.62325858    -0.58900
O9          O  0.17085870  0.36805331  0.69414537    -0.49000
O10         O  0.09862292  0.39687351  0.68936488    -0.55400
C11         C  0.09339022  0.32538978  0.68616500     0.84700
O12         O  0.15752468  0.35268793  0.58134518    -0.57300
O13         O  0.16199783  0.40947620  0.65678898    -0.60600
In14       In  0.12937512  0.37252139  0.42009941     1.36900
C15         C  0.08933118  0.40899872  0.38144456     0.77100
O16         O  0.15110692  0.42002046  0.41978922    -0.61300
O17         O  0.17445744  0.38464364  0.38114248    -0.52200
C18         C  0.13456644  0.36139110  0.50758794     0.69800
O19         O  0.11178897  0.37469073  0.48984097    -0.47100
C20         C  0.09789330  0.32345567  0.39112602     0.74500
O21         O  0.09566877  0.41169023  0.42278530    -0.58900
O22         O  0.12537320  0.32899925  0.37587514    -0.49000
O23         O  0.10319316  0.38699982  0.36092340    -0.55400
C24         C  0.17266739  0.41355213  0.39144657     0.84700
O25         O  0.15615386  0.35276973  0.47998680    -0.57300
O26         O  0.08946760  0.33985175  0.42467506    -0.60600
In27       In  0.37559098  0.12066029  0.64791653     1.36900
C28         C  0.41969528  0.08367804  0.67565868     0.77100
O29         O  0.41840445  0.15039218  0.65157955    -0.61300
O30         O  0.37893216  0.16611940  0.68878430    -0.52200
C31         C  0.36920515  0.12494044  0.55954582     0.69800
O32         O  0.38397873  0.10405092  0.57969423    -0.47100
C33         C  0.32766777  0.08642297  0.68334853     0.74500
O34         O  0.41910324  0.09363012  0.63538208    -0.58900
O35         O  0.32899195  0.11595389  0.68766504    -0.49000
O36         O  0.39711129  0.09234191  0.70114945    -0.55400
C37         C  0.40776274  0.16966480  0.67998479     0.84700
O38         O  0.35475942  0.14421753  0.58506124    -0.57300
O39         O  0.34933073  0.07542766  0.65849322    -0.60600
In40       In  0.38191256  0.11726849  0.42255149     1.36900
C41         C  0.42325671  0.07534757  0.39864778     0.77100
O42         O  0.35570568  0.07252134  0.41716875    -0.61300
O43         O  0.34011579  0.11087404  0.37780656    -0.52200
C44         C  0.37201367  0.12574529  0.51021512     0.69800
O45         O  0.39512690  0.11239898  0.49202707    -0.47100
C46         C  0.41387493  0.16692535  0.38863668     0.74500
O47         O  0.41230235  0.07640026  0.43876114    -0.58900
O48         O  0.38540094  0.16281825  0.38093765    -0.49000
O49         O  0.41289800  0.09549996  0.37140353    -0.55400
C50         C  0.33790244  0.08195147  0.38718535     0.84700
O51         O  0.35292337  0.13738068  0.48295522    -0.57300
O52         O  0.42446846  0.14734397  0.41618953    -0.62400
C53         C  0.25635266  0.49955206  0.28391068    -0.02900
In54       In  0.39115951  0.37599426  0.92125455     1.36900
C55         C  0.43067754  0.40358680  0.86401341     0.77100
O56         O  0.42964767  0.34124926  0.91944923    -0.61300
O57         O  0.38593032  0.32712330  0.89510143    -0.52200
C58         C  0.38757821  0.37374460  0.01090440     0.69800
O59         O  0.40716237  0.39006291  0.98857622    -0.47100
C60         C  0.34306572  0.41035521  0.89299953     0.74500
O61         O  0.43000658  0.40965150  0.90599567    -0.58900
O62         O  0.34527591  0.38115344  0.88651193    -0.49000
O63         O  0.41193413  0.38296978  0.85219108    -0.55400
C64         C  0.41461138  0.32101878  0.89851724     0.84700
O65         O  0.36914455  0.35839193  0.98733847    -0.57300
O66         O  0.36395555  0.42100198  0.91734185    -0.60600
In67       In  0.38776059  0.37793632  0.15010954     1.36900
C68         C  0.42166954  0.41937179  0.18822550     0.77100
O69         O  0.35852972  0.42093616  0.15563962    -0.61300
O70         O  0.33872923  0.37984474  0.18300736    -0.52200
C71         C  0.38696799  0.37359157  0.06054115     0.69800
O72         O  0.40618379  0.38948854  0.08135892    -0.47100
C73         C  0.41951559  0.32859566  0.18386849     0.74500
O74         O  0.42081313  0.41744167  0.14565163    -0.58900
O75         O  0.39036146  0.33151776  0.18980985    -0.49000
O76         O  0.40510700  0.40028675  0.21105090    -0.55400
C77         C  0.33597552  0.40921700  0.17762082     0.84700
O78         O  0.36775916  0.35851041  0.08563817    -0.57300
O79         O  0.43118206  0.34903966  0.15772316    -0.60600
In80       In  0.11667136  0.11129907  0.92176729     1.36900
C81         C  0.07960094  0.07418159  0.87844629     0.77100
O82         O  0.07446008  0.14177869  0.91877525    -0.61300
O83         O  0.11331090  0.15449046  0.87663174    -0.52200
C84         C  0.12378104  0.11692927  0.01019905     0.69800
O85         O  0.10819482  0.09559939  0.99271915    -0.47100
C86         C  0.16782938  0.08090289  0.89434316     0.74500
O87         O  0.07394383  0.08199531  0.91921576    -0.58900
O88         O  0.16470762  0.11022230  0.88821274    -0.49000
O89         O  0.10489672  0.08414609  0.86161995    -0.55400
C90         C  0.08477787  0.15886712  0.88683493     0.84700
O91         O  0.13587571  0.13635213  0.98229625    -0.57300
O92         O  0.14634475  0.06840355  0.91817544    -0.60600
In93       In  0.13016007  0.11725662  0.14880657     1.36900
C94         C  0.09266720  0.07278306  0.17640181     0.77100
O95         O  0.17772861  0.09556152  0.13874521    -0.61300
O96         O  0.16438081  0.11126022  0.20418018    -0.52200
C97         C  0.12706070  0.11813226  0.05943336     0.69800
O98         O  0.11377284  0.09803189  0.08472120    -0.47100
C99         C  0.10044675  0.16541982  0.18906555     0.74500
O100        O  0.08324995  0.09636735  0.15493818    -0.58900
O101        O  0.11602862  0.16933107  0.15231622    -0.49000
O102        O  0.12160532  0.06972663  0.17758939    -0.55400
C103        C  0.18273466  0.09449167  0.18057400     0.84700
O104        O  0.14276161  0.13835279  0.07978264    -0.57300
O105        O  0.10424423  0.13903501  0.20696134    -0.60600
C106        C  0.00511571  0.49692813  0.28990987    -0.02900
C107        C  0.00761288  0.24770097  0.28707440    -0.02900
C108        C  0.25281361  0.48917657  0.78913277    -0.02900
C109        C  0.99943899  0.24296426  0.78464010    -0.02900
C110        C  0.00493297  0.49590888  0.75773108    -0.02900
C111        C  0.08233914  0.21959870  0.21411290    -0.02300
C112        C  0.07690543  0.18765459  0.20870267     0.07400
C113        C  0.04862026  0.17543396  0.22521621    -0.02400
C114        C  0.02951790  0.19230461  0.25574216    -0.02400
C115        C  0.03138272  0.22602791  0.25779304     0.07500
C116        C  0.05914223  0.23906310  0.23508446    -0.02600
Br117      Br  0.06652990  0.28338881  0.22742986    -0.01200
Br118      Br  0.12165432  0.23650833  0.19214773    -0.01200
Br119      Br  0.51126567  0.16375513  0.30048610    -0.01200
Br120      Br  0.03446887  0.13543221  0.20435834    -0.01200
C121        C  0.05403899  0.03265660  0.27645369    -0.02300
C122        C  0.02789905  0.01689895  0.25704692     0.07400
C123        C  0.02585406  0.01950324  0.20765959    -0.02400
C124        C  0.04686338  0.03840084  0.18205041    -0.02400
C125        C  0.07158703  0.05255271  0.20268633     0.07500
C126        C  0.07543014  0.04969062  0.24933794    -0.02600
Br127      Br  0.10888356  0.07243604  0.27712499    -0.01200
Br128      Br  0.06099933  0.03555840  0.34092010    -0.01200
Br129      Br  0.04414554  0.04351518  0.11649499    -0.01200
Br130      Br  0.99859245  0.49494732  0.16786848    -0.01200
C131        C  0.02035658  0.18629465  0.81144506    -0.02300
C132        C  0.02279849  0.22001274  0.81050182     0.07400
C133        C  0.04992049  0.23195753  0.83291942    -0.02400
C134        C  0.07178633  0.21149642  0.85277896    -0.02400
C135        C  0.06407663  0.18019348  0.86123014     0.07500
C136        C  0.03650760  0.16868916  0.84357310    -0.02600
Br137      Br  0.01971123  0.12864779  0.86252053    -0.01200
Br138      Br  0.00347839  0.15989033  0.76486299    -0.01200
Br139      Br  0.11094831  0.22704723  0.87346079    -0.01200
Br140      Br  0.05678949  0.27560700  0.84599504    -0.01200
C141        C  0.20918774  0.03921468  0.89525774    -0.02300
C142        C  0.19215781  0.06137709  0.87100887     0.07400
C143        C  0.19407387  0.06128244  0.82360958    -0.02400
C144        C  0.21117645  0.03783968  0.80001971    -0.02400
C145        C  0.22986207  0.01460905  0.82311809     0.07500
C146        C  0.22879060  0.01686771  0.87260161    -0.02600
Br147      Br  0.25526426  0.99456672  0.91421142    -0.01200
Br148      Br  0.20655501  0.04156369  0.96111402    -0.01200
Br149      Br  0.20244903  0.03579908  0.73620029    -0.01200
Br150      Br  0.16986552  0.09188133  0.79048425    -0.01200
C151        C  0.02190095  0.01248764  0.84413659    -0.02300
C152        C  0.02221340  0.01617601  0.79487156     0.07400
C153        C  0.03835594  0.04370559  0.77713103    -0.02400
C154        C  0.05490366  0.06347918  0.80540403    -0.02400
C155        C  0.05824174  0.05576511  0.85130230     0.07500
C156        C  0.04161581  0.03068502  0.87064365    -0.02600
Br157      Br  0.04656286  0.02071191  0.93456108    -0.01200
Br158      Br  0.49291268  0.98792799  0.88252610    -0.01200
Br159      Br  0.07421571  0.10128532  0.77998546    -0.01200
Br160      Br  0.04417140  0.05381655  0.71304742    -0.01200
C161        C  0.46949529  0.42722583  0.22623160    -0.02300
C162        C  0.44247916  0.44021405  0.21027748     0.07400
C163        C  0.43392712  0.47092851  0.22073790    -0.02400
C164        C  0.45411045  0.48958308  0.24559749    -0.02400
C165        C  0.48152584  0.47586884  0.26506591     0.07500
C166        C  0.48497271  0.44239833  0.25994446    -0.02600
Br167      Br  0.99837922  0.41270736  0.30400204    -0.01200
Br168      Br  0.48466346  0.38752845  0.20319100    -0.01200
Br169      Br  0.44647763  0.03405381  0.24342428    -0.01200
Br170      Br  0.39663693  0.48806809  0.19539567    -0.01200
C171        C  0.43721579  0.30209370  0.25514498    -0.02300
C172        C  0.43950747  0.30516304  0.20785841     0.07400
C173        C  0.46354405  0.28919244  0.18423357    -0.02400
C174        C  0.48565430  0.27034684  0.20724638    -0.02400
C175        C  0.48574542  0.26879334  0.25685208     0.07500
C176        C  0.46020501  0.28572322  0.27939666    -0.02600
Br177      Br  0.45684245  0.29192947  0.34442210    -0.01200
Br178      Br  0.40282086  0.32252460  0.28756646    -0.01200
Br179      Br  0.01072035  0.24589841  0.16526531    -0.01200
Br180      Br  0.46367633  0.29120264  0.11828309    -0.01200
C181        C  0.48217339  0.42157977  0.83292155    -0.02300
C182        C  0.44996214  0.42109215  0.83071833     0.07400
C183        C  0.43537926  0.43901818  0.79807324    -0.02400
C184        C  0.45096901  0.46446871  0.77711844    -0.02400
C185        C  0.48440923  0.46826614  0.78204844     0.07500
C186        C  0.49965337  0.44295791  0.80584960    -0.02600
Br187      Br  0.04454263  0.43954344  0.80943633    -0.01200
Br188      Br  0.50196262  0.39353107  0.87510325    -0.01200
Br189      Br  0.42339080  0.48831129  0.73845107    -0.01200
Br190      Br  0.39435624  0.42629363  0.77977349    -0.01200
C191        C  0.42771905  0.29293213  0.82711796    -0.02300
C192        C  0.43109360  0.29534256  0.87393515     0.07400
C193        C  0.45513913  0.27890636  0.89443979    -0.02400
C194        C  0.47679266  0.26068113  0.86825834    -0.02400
C195        C  0.47708212  0.26184562  0.81867555     0.07500
C196        C  0.45130141  0.27900223  0.79966713    -0.02600
Br197      Br  0.44954096  0.29071280  0.73627840    -0.01200
Br198      Br  0.39190061  0.31201352  0.79926868    -0.01200
Br199      Br  0.99983966  0.23237985  0.90638619    -0.01200
Br200      Br  0.45634596  0.28024733  0.96028955    -0.01200
C201        C  0.32855392  0.45935362  0.85066938    -0.02300
C202        C  0.31949838  0.43080907  0.87086970     0.07400
C203        C  0.28895183  0.42067263  0.86524338    -0.02400
C204        C  0.26722886  0.43993067  0.84249096    -0.02400
C205        C  0.27686447  0.46808622  0.81759099     0.07500
C206        C  0.31008308  0.47348186  0.81766557    -0.02600
Br207      Br  0.33511007  0.99396979  0.77360801    -0.01200
Br208      Br  0.36745077  0.47903697  0.86490739    -0.01200
Br209      Br  0.22461243  0.42686485  0.85233278    -0.01200
Br210      Br  0.27600755  0.38142568  0.89333128    -0.01200
C211        C  0.24284269  0.05880366  0.25728013    -0.02300
C212        C  0.23992678  0.02523909  0.25084021     0.07400
C213        C  0.22227831  0.01723133  0.21156006    -0.02400
C214        C  0.20653271  0.04051399  0.18608701    -0.02400
C215        C  0.20470714  0.07177646  0.20124621     0.07500
C216        C  0.22144441  0.08002853  0.23903125    -0.02600
Br217      Br  0.21776772  0.12186009  0.26376029    -0.01200
Br218      Br  0.28084094  0.08073601  0.26989088    -0.01200
Br219      Br  0.18405783  0.02836285  0.13292664    -0.01200
Br220      Br  0.21324729  0.47442666  0.19695861    -0.01200
C221        C  0.26832912  0.44032700  0.25326289    -0.02300
C222        C  0.27291936  0.47414615  0.25018983     0.07400
C223        C  0.29186640  0.48351859  0.21110088    -0.02400
C224        C  0.30751932  0.46106807  0.18323051    -0.02400
C225        C  0.31035573  0.42959197  0.19758311     0.07500
C226        C  0.29003775  0.41928570  0.23280352    -0.02600
Br227      Br  0.28937500  0.37563589  0.25139060    -0.01200
Br228      Br  0.22913674  0.41931282  0.26816998    -0.01200
Br229      Br  0.32334089  0.47340867  0.12339769    -0.01200
Br230      Br  0.30078489  0.52648633  0.19502076    -0.01200
C231        C  0.45708869  0.20667164  0.38915043    -0.02300
C232        C  0.43461171  0.19060315  0.36505204     0.07400
C233        C  0.43496293  0.19357126  0.31772072    -0.02400
C234        C  0.45895078  0.21019500  0.29398341    -0.02400
C235        C  0.48337263  0.22655197  0.31707511     0.07500
C236        C  0.48069201  0.22490646  0.36654621    -0.02600
Br237      Br  0.00384415  0.24946095  0.40841118    -0.01200
Br238      Br  0.45332637  0.20530778  0.45505378    -0.01200
Br239      Br  0.45915718  0.20423600  0.22895305    -0.01200
Br240      Br  0.40343074  0.17199290  0.28443829    -0.01200
C241        C  0.44068016  0.02175551  0.37855058    -0.02300
C242        C  0.44721362  0.05338502  0.38367853     0.07400
C243        C  0.47372799  0.06622347  0.36368932    -0.02400
C244        C  0.48906068  0.05054967  0.32822470    -0.02400
C245        C  0.48581206  0.01703005  0.32383518     0.07500
C246        C  0.46062596  0.00304697  0.35104660    -0.02600
Br247      Br  0.45252347  0.95868099  0.35576351    -0.01200
Br248      Br  0.40466587  0.00433100  0.41062543    -0.01200
Br249      Br  0.50275345  0.08007928  0.28170290    -0.01200
Br250      Br  0.48657530  0.10733486  0.38256537    -0.01200
C251        C  0.28682493  0.05596955  0.37690257    -0.02300
C252        C  0.31788071  0.05975439  0.36342294     0.07400
C253        C  0.33097653  0.04000512  0.33009434    -0.02400
C254        C  0.31308277  0.01671222  0.30954275    -0.02400
C255        C  0.27950880  0.01700585  0.31493850     0.07500
C256        C  0.26727611  0.03650747  0.35181553    -0.02600
Br257      Br  0.22383119  0.04150897  0.36817526    -0.01200
Br258      Br  0.27126817  0.07898286  0.42944454    -0.01200
Br259      Br  0.33840922  0.48311720  0.28524240    -0.01200
Br260      Br  0.37389938  0.04601085  0.31100325    -0.01200
C261        C  0.42647582  0.19439277  0.75117264    -0.02300
C262        C  0.42879354  0.19180531  0.70382762     0.07400
C263        C  0.45417123  0.20631882  0.68072922    -0.02400
C264        C  0.47555963  0.22523991  0.70406739    -0.02400
C265        C  0.47653306  0.22451541  0.75342921     0.07500
C266        C  0.45093816  0.20749690  0.77561940    -0.02600
Br267      Br  0.44899852  0.19693614  0.83973019    -0.01200
Br268      Br  0.39048257  0.17710667  0.78378635    -0.01200
Br269      Br  0.49766368  0.25445909  0.66371711    -0.01200
Br270      Br  0.45907903  0.20126331  0.61546433    -0.01200
C271        C  0.46027188  0.04152126  0.66520489    -0.02300
C272        C  0.44476409  0.06384439  0.69254388     0.07400
C273        C  0.45174378  0.06610686  0.73808889    -0.02400
C274        C  0.46654788  0.04124206  0.75917128    -0.02400
C275        C  0.48420773  0.01823357  0.73323034     0.07500
C276        C  0.48284767  0.02158526  0.68407098    -0.02600
Br277      Br  0.01260666  0.00570270  0.63777379    -0.01200
Br278      Br  0.45043537  0.03768241  0.60169136    -0.01200
Br279      Br  0.45478865  0.03775929  0.82263024    -0.01200
Br280      Br  0.44084811  0.10339332  0.77249998    -0.01200
C281        C  0.30145914  0.06718260  0.75566602    -0.02300
C282        C  0.30484289  0.06537148  0.70843076     0.07400
C283        C  0.29001594  0.04085076  0.68628251    -0.02400
C284        C  0.27202279  0.01781213  0.71075527    -0.02400
C285        C  0.27043449  0.01702015  0.76028923     0.07500
C286        C  0.28562577  0.04351766  0.78129944    -0.02600
Br287      Br  0.29128863  0.04715793  0.84591571    -0.01200
Br288      Br  0.32229588  0.10103854  0.78604057    -0.01200
Br289      Br  0.24838424  0.99159245  0.67114972    -0.01200
Br290      Br  0.29339009  0.04045651  0.62043675    -0.01200
C291        C  0.24487846  0.45832145  0.35000665    -0.02300
C292        C  0.23275015  0.48094386  0.31791215     0.07400
C293        C  0.19916619  0.48474385  0.32041914    -0.02400
C294        C  0.18031805  0.46455858  0.34828569    -0.02400
C295        C  0.19310547  0.43845930  0.37061445     0.07500
C296        C  0.22529992  0.43654593  0.37347699    -0.02600
Br297      Br  0.24237567  0.40285767  0.40945241    -0.01200
Br298      Br  0.28838169  0.45276109  0.36111456    -0.01200
Br299      Br  0.13655228  0.47389894  0.35842412    -0.01200
Br300      Br  0.17603391  0.51896062  0.29333399    -0.01200
C301        C  0.07272649  0.43730702  0.31202853    -0.02300
C302        C  0.06820011  0.43051640  0.35850679     0.07400
C303        C  0.04454305  0.44565337  0.38374815    -0.02400
C304        C  0.02828923  0.47071953  0.36481319    -0.02400
C305        C  0.02851010  0.47501779  0.31592897     0.07500
C306        C  0.05205727  0.45751050  0.29024102    -0.02600
Br307      Br  0.05582800  0.45599713  0.22444480    -0.01200
Br308      Br  0.10696589  0.41836941  0.27663882    -0.01200
Br309      Br  0.01276180  0.99844293  0.41227883    -0.01200
Br310      Br  0.03233779  0.43083506  0.44425330    -0.01200
C311        C  0.04725135  0.31659300  0.35365151    -0.02300
C312        C  0.07515533  0.30331009  0.36798567     0.07400
C313        C  0.08064454  0.27168009  0.35906440    -0.02400
C314        C  0.05729577  0.25338862  0.33905071    -0.02400
C315        C  0.03075860  0.26782998  0.31720251     0.07500
C316        C  0.02960335  0.30144547  0.32133780    -0.02600
Br317      Br  0.51402144  0.33072461  0.27904085    -0.01200
Br318      Br  0.03185330  0.35564028  0.37806061    -0.01200
Br319      Br  0.06222468  0.20894699  0.34849393    -0.01200
Br320      Br  0.11876253  0.25300140  0.37951841    -0.01200
C321        C  0.22881646  0.41556284  0.71459922    -0.02300
C322        C  0.19652150  0.41602466  0.71751314     0.07400
C323        C  0.18156593  0.43644293  0.74788775    -0.02400
C324        C  0.19798748  0.46025486  0.77022192    -0.02400
C325        C  0.23175584  0.46373470  0.76333017     0.07500
C326        C  0.24640395  0.43828264  0.73754199    -0.02600
Br327      Br  0.29078360  0.43336363  0.72854959    -0.01200
Br328      Br  0.24845922  0.38227829  0.67971641    -0.01200
Br329      Br  0.17119961  0.48058793  0.81618521    -0.01200
Br330      Br  0.13841904  0.42697008  0.76419885    -0.01200
C331        C  0.04090102  0.43513930  0.67063012    -0.02300
C332        C  0.07213627  0.44283559  0.66929974     0.07400
C333        C  0.08229413  0.46946919  0.69045609    -0.02400
C334        C  0.06305585  0.48377804  0.72369641    -0.02400
C335        C  0.02954163  0.47842843  0.72489217     0.07500
C336        C  0.01936026  0.45352102  0.69555150    -0.02600
Br337      Br  0.47684223  0.44244887  0.68542497    -0.01200
Br338      Br  0.02829101  0.39897060  0.63632308    -0.01200
Br339      Br  0.08858992  0.49976841  0.77149837    -0.01200
Br340      Br  0.12457109  0.48317341  0.67738222    -0.01200
C341        C  0.04839688  0.25335195  0.72914494    -0.02300
C342        C  0.02274723  0.26631383  0.75661946     0.07400
C343        C  0.02375027  0.30026633  0.76187945    -0.02400
C344        C  0.04665609  0.31863480  0.73842363    -0.02400
C345        C  0.07076380  0.30487674  0.71198774     0.07500
C346        C  0.07194317  0.27233624  0.70846158    -0.02600
Br347      Br  0.10574630  0.25394375  0.67248995    -0.01200
Br348      Br  0.05200719  0.20949142  0.71421551    -0.01200
Br349      Br  0.04738215  0.36376527  0.74671397    -0.01200
Br350      Br  0.00040934  0.32492654  0.80688132    -0.01200
In351      In  0.13155528  0.86835211  0.64808589     1.36900
C352        C  0.09534097  0.91708208  0.66153937     0.77100
O353        O  0.08533293  0.84752050  0.66625091    -0.61300
O354        O  0.12407428  0.82125961  0.68661537    -0.52200
C355        C  0.13638764  0.85767195  0.55925753     0.69800
O356        O  0.11182025  0.86398555  0.58116625    -0.47100
C357        C  0.17833946  0.89619806  0.69128363     0.74500
O358        O  0.10971451  0.91343256  0.62402547    -0.58900
O359        O  0.16963379  0.86862501  0.70117797    -0.49000
O360        O  0.10074924  0.89692270  0.69157065    -0.55400
C361        C  0.09465957  0.82407395  0.68778522     0.84700
O362        O  0.15960991  0.85254709  0.58354334    -0.57300
O363        O  0.16596140  0.90736603  0.65665698    -0.60600
In364      In  0.13101957  0.87218465  0.42179369     1.36900
C365        C  0.09136236  0.90972685  0.38324193     0.77100
O366        O  0.15486808  0.91851737  0.42194802    -0.61300
O367        O  0.17584122  0.88288399  0.38113293    -0.52200
C368        C  0.13640066  0.86055781  0.50958073     0.69800
O369        O  0.11409780  0.87484573  0.49209169    -0.47100
C370        C  0.09912289  0.82385037  0.39099855     0.74500
O371        O  0.09726405  0.91187403  0.42484410    -0.58900
O372        O  0.12711911  0.82864631  0.37757189    -0.49000
O373        O  0.10555216  0.88802990  0.36256125    -0.55400
C374        C  0.17532430  0.91166674  0.39209792     0.84700
O375        O  0.15740265  0.85114531  0.48159073    -0.57300
O376        O  0.09011613  0.84059759  0.42389745    -0.60600
In377      In  0.37434277  0.62139647  0.64766826     1.36900
C378        C  0.41773932  0.58409964  0.67618633     0.77100
O379        O  0.41674358  0.65072428  0.65406317    -0.61300
O380        O  0.37671745  0.66642967  0.69000858    -0.52200
C381        C  0.37007935  0.62740725  0.55903398     0.69800
O382        O  0.38644590  0.60777070  0.57908772    -0.47100
C383        C  0.32728395  0.58540478  0.68070180     0.74500
O384        O  0.41781914  0.59455935  0.63616459    -0.58900
O385        O  0.32799475  0.61479655  0.68685076    -0.49000
O386        O  0.39471177  0.59231128  0.70110558    -0.55400
C387        C  0.40567473  0.66987254  0.68222803     0.84700
O388        O  0.35311307  0.64453444  0.58466999    -0.57300
O389        O  0.34878420  0.57561783  0.65444371    -0.60600
In390      In  0.38316514  0.61955141  0.42216358     1.36900
C391        C  0.42519902  0.57783891  0.39974714     0.77100
O392        O  0.35351546  0.57620515  0.42252031    -0.61300
O393        O  0.34486428  0.61027661  0.37198937    -0.52200
C394        C  0.37328086  0.62876966  0.50968600     0.69800
O395        O  0.39722003  0.61681485  0.49159492    -0.47100
C396        C  0.41424745  0.66985728  0.38869175     0.74500
O397        O  0.41406429  0.57932048  0.43972041    -0.58900
O398        O  0.38523261  0.66671745  0.38392163    -0.49000
O399        O  0.41470647  0.59746861  0.37190980    -0.55400
C400        C  0.33914199  0.58308290  0.38744821     0.84700
O401        O  0.35354858  0.63907357  0.48230453    -0.57300
O402        O  0.42589991  0.64894884  0.41308099    -0.62400
C403        C  0.25640571  0.99916700  0.28240444    -0.02900
In404      In  0.38828137  0.87498048  0.92186776     1.36900
C405        C  0.42755435  0.90358685  0.86508764     0.77100
O406        O  0.42729463  0.84084392  0.91999353    -0.61300
O407        O  0.38350021  0.82557962  0.89716517    -0.52200
C408        C  0.38522212  0.87339020  0.01127429     0.69800
O409        O  0.40499880  0.88908882  0.98839147    -0.47100
C410        C  0.34030361  0.90955822  0.89416456     0.74500
O411        O  0.42719265  0.90873008  0.90730706    -0.58900
O412        O  0.34293551  0.88066111  0.88539028    -0.49000
O413        O  0.40841685  0.88351707  0.85269866    -0.55400
C414        C  0.41236168  0.82011969  0.89999019     0.84700
O415        O  0.36615555  0.85830359  0.98837387    -0.57300
O416        O  0.36035807  0.91938985  0.92059090    -0.60600
In417      In  0.38767954  0.87846370  0.14981525     1.36900
C418        C  0.42209349  0.91985566  0.18744768     0.77100
O419        O  0.35929604  0.92155409  0.15640899    -0.61300
O420        O  0.33881256  0.88025089  0.18261646    -0.52200
C421        C  0.38530187  0.87356946  0.06077709     0.69800
O422        O  0.40559463  0.88870028  0.08064468    -0.47100
C423        C  0.41938065  0.82911592  0.18269770     0.74500
O424        O  0.41975785  0.91893810  0.14497156    -0.58900
O425        O  0.39059523  0.83307620  0.19121356    -0.49000
O426        O  0.40671249  0.89985614  0.21033591    -0.55400
C427        C  0.33660210  0.90972325  0.17788751     0.84700
O428        O  0.36578593  0.85951028  0.08663111    -0.57300
O429        O  0.43048935  0.84832989  0.15408817    -0.60600
In430      In  0.11772804  0.60833747  0.92058512     1.36900
C431        C  0.08025390  0.57139101  0.87897505     0.77100
O432        O  0.07470278  0.63785792  0.91889709    -0.61300
O433        O  0.11286322  0.65168039  0.87617655    -0.52200
C434        C  0.12512396  0.61457205  0.00845003     0.69800
O435        O  0.11061964  0.59236801  0.99126080    -0.47100
C436        C  0.16889872  0.57843606  0.89137831     0.74500
O437        O  0.07497766  0.57899967  0.91989480    -0.58900
O438        O  0.16507283  0.60760259  0.88451723    -0.49000
O439        O  0.10557068  0.58083838  0.86161289    -0.55400
C440        C  0.08440840  0.65562736  0.88739195     0.84700
O441        O  0.13651723  0.63432489  0.98040398    -0.57300
O442        O  0.14818473  0.56596685  0.91671048    -0.60600
In443      In  0.12991031  0.61597189  0.14686331     1.36900
C444        C  0.09184339  0.57185456  0.17383700     0.77100
O445        O  0.17727216  0.59367974  0.13684273    -0.61300
O446        O  0.16460413  0.61025810  0.20201511    -0.52200
C447        C  0.12776602  0.61639947  0.05760804     0.69800
O448        O  0.11462871  0.59618017  0.08281322    -0.47100
C449        C  0.09986827  0.66413171  0.18699491     0.74500
O450        O  0.08269578  0.59527359  0.15169641    -0.58900
O451        O  0.11654041  0.66827392  0.15126615    -0.49000
O452        O  0.12076253  0.56881404  0.17599860    -0.55400
C453        C  0.18285278  0.59329882  0.17846961     0.84700
O454        O  0.14260344  0.63724391  0.07800567    -0.57300
O455        O  0.10248816  0.63730940  0.20395755    -0.60600
C456        C  0.00602717  0.99614774  0.28991426    -0.02900
C457        C  0.00907948  0.74882349  0.28521560    -0.02900
C458        C  0.25172430  0.99165253  0.79255002    -0.02900
C459        C  0.99996876  0.74210331  0.78720470    -0.02900
C460        C  0.00500543  0.99416677  0.75992521    -0.02900
C461        C  0.08293468  0.71870025  0.21204622    -0.02300
C462        C  0.07680535  0.68686950  0.20682070     0.07400
C463        C  0.04828632  0.67534714  0.22368401    -0.02400
C464        C  0.02972877  0.69274828  0.25436948    -0.02400
C465        C  0.03226788  0.72643989  0.25601210     0.07500
C466        C  0.06017211  0.73873894  0.23282307    -0.02600
Br467      Br  0.06827906  0.78277063  0.22371678    -0.01200
Br468      Br  0.12262331  0.73476654  0.19017173    -0.01200
Br469      Br  0.50997380  0.66509148  0.29875103    -0.01200
Br470      Br  0.03296291  0.63579604  0.20276028    -0.01200
C471        C  0.05337450  0.53288172  0.27479968    -0.02300
C472        C  0.02693632  0.51717489  0.25615779     0.07400
C473        C  0.02462045  0.51932773  0.20670428    -0.02400
C474        C  0.04611135  0.53724263  0.18028218    -0.02400
C475        C  0.07053453  0.55214402  0.20055966     0.07500
C476        C  0.07416181  0.55030977  0.24729638    -0.02600
Br477      Br  0.10652832  0.57496830  0.27456080    -0.01200
Br478      Br  0.06205397  0.53484582  0.33871623    -0.01200
Br479      Br  0.04468657  0.53983036  0.11428717    -0.01200
Br480      Br  0.00103394  0.99459865  0.16780860    -0.01200
C481        C  0.01943919  0.68496144  0.81461924    -0.02300
C482        C  0.02260762  0.71863098  0.81363153     0.07400
C483        C  0.04980973  0.72992700  0.83656280    -0.02400
C484        C  0.07127535  0.70899282  0.85638129    -0.02400
C485        C  0.06331979  0.67765732  0.86369228     0.07500
C486        C  0.03524553  0.66695995  0.84670206    -0.02600
Br487      Br  0.01702455  0.62786352  0.86714634    -0.01200
Br488      Br  0.00231782  0.65892243  0.76786070    -0.01200
Br489      Br  0.10999046  0.72391672  0.87963680    -0.01200
Br490      Br  0.05760036  0.77326814  0.84996973    -0.01200
C491        C  0.21039430  0.53684273  0.89178859    -0.02300
C492        C  0.19318605  0.55895168  0.86765216     0.07400
C493        C  0.19484493  0.55868359  0.82019059    -0.02400
C494        C  0.21245027  0.53559700  0.79649632    -0.02400
C495        C  0.23113196  0.51234548  0.81961842     0.07500
C496        C  0.22969450  0.51427197  0.86906305    -0.02600
Br497      Br  0.25448654  0.49019634  0.91063783    -0.01200
Br498      Br  0.20801084  0.53911620  0.95767177    -0.01200
Br499      Br  0.20444035  0.53388839  0.73236055    -0.01200
Br500      Br  0.16930027  0.58816087  0.78716128    -0.01200
C501        C  0.02209971  0.51148616  0.84254109    -0.02300
C502        C  0.02186602  0.51702822  0.79365539     0.07400
C503        C  0.03707061  0.54551161  0.77773344    -0.02400
C504        C  0.05370901  0.56424973  0.80712476    -0.02400
C505        C  0.05824336  0.55431440  0.85180638     0.07500
C506        C  0.04250032  0.52826184  0.86954911    -0.02600
Br507      Br  0.04985858  0.51480523  0.93144118    -0.01200
Br508      Br  0.49248351  0.48745038  0.88128641    -0.01200
Br509      Br  0.07251041  0.60309687  0.78454545    -0.01200
Br510      Br  0.04199137  0.55819374  0.71451014    -0.01200
C511        C  0.47026438  0.92716879  0.22487024    -0.02300
C512        C  0.44334363  0.94050990  0.20915669     0.07400
C513        C  0.43525320  0.97131014  0.21956267    -0.02400
C514        C  0.45564739  0.98971091  0.24442517    -0.02400
C515        C  0.48313073  0.97582557  0.26372985     0.07500
C516        C  0.48663783  0.94238604  0.25781945    -0.02600
Br517      Br  0.00166901  0.91196554  0.30079459    -0.01200
Br518      Br  0.48366867  0.88663070  0.20241738    -0.01200
Br519      Br  0.44512453  0.53391306  0.24401794    -0.01200
Br520      Br  0.39773954  0.98869917  0.19510911    -0.01200
C521        C  0.43871978  0.80466683  0.25433574    -0.02300
C522        C  0.43974517  0.80618449  0.20686022     0.07400
C523        C  0.46309176  0.78941767  0.18296153    -0.02400
C524        C  0.48600157  0.77154022  0.20586646    -0.02400
C525        C  0.48667165  0.77060396  0.25544107     0.07500
C526        C  0.46194495  0.78847523  0.27825271    -0.02600
Br527      Br  0.46009592  0.79605896  0.34299582    -0.01200
Br528      Br  0.40572558  0.82684899  0.28746272    -0.01200
Br529      Br  0.01148065  0.74620377  0.16342839    -0.01200
Br530      Br  0.46104530  0.78884915  0.11712189    -0.01200
C531        C  0.47958452  0.92114620  0.83545974    -0.02300
C532        C  0.44741364  0.92113828  0.83239093     0.07400
C533        C  0.43362760  0.93908788  0.79901180    -0.02400
C534        C  0.44998916  0.96410410  0.77802198    -0.02400
C535        C  0.48347130  0.96746329  0.78384123     0.07500
C536        C  0.49781666  0.94212341  0.80869084    -0.02600
Br537      Br  0.04227769  0.93772745  0.81492740    -0.01200
Br538      Br  0.49831865  0.89213767  0.87738637    -0.01200
Br539      Br  0.42318346  0.98799560  0.73821493    -0.01200
Br540      Br  0.39279373  0.92670548  0.77929719    -0.01200
C541        C  0.42729211  0.79401591  0.82803412    -0.02300
C542        C  0.42909045  0.79476974  0.87520093     0.07400
C543        C  0.45195181  0.77713148  0.89642805    -0.02400
C544        C  0.47413511  0.75918769  0.87073923    -0.02400
C545        C  0.47545717  0.76084933  0.82114223     0.07500
C546        C  0.45066003  0.77907517  0.80132454    -0.02600
Br547      Br  0.45016778  0.79076849  0.73785775    -0.01200
Br548      Br  0.39425896  0.81728729  0.79917023    -0.01200
Br549      Br  0.99865144  0.73175014  0.90867719    -0.01200
Br550      Br  0.45076698  0.77668001  0.96242148    -0.01200
C551        C  0.32724353  0.95958834  0.85353435    -0.02300
C552        C  0.31737625  0.93088176  0.87238492     0.07400
C553        C  0.28647373  0.92201154  0.86696941    -0.02400
C554        C  0.26517327  0.94285310  0.84644422    -0.02400
C555        C  0.27556096  0.97067507  0.82144879     0.07500
C556        C  0.30894991  0.97536753  0.82171423    -0.02600
Br557      Br  0.33587971  0.48988163  0.76745234    -0.01200
Br558      Br  0.36709136  0.97709453  0.86829409    -0.01200
Br559      Br  0.22217703  0.93293396  0.86047711    -0.01200
Br560      Br  0.27258194  0.88217928  0.89196718    -0.01200
C561        C  0.24372438  0.55940108  0.25622988    -0.02300
C562        C  0.24010991  0.52560662  0.25179943     0.07400
C563        C  0.22192697  0.51690150  0.21335245    -0.02400
C564        C  0.20689600  0.53964486  0.18611972    -0.02400
C565        C  0.20553465  0.57128152  0.19922023     0.07500
C566        C  0.22333016  0.58073026  0.23528538    -0.02600
Br567      Br  0.22237865  0.62452879  0.25253461    -0.01200
Br568      Br  0.28082982  0.58098878  0.27366885    -0.01200
Br569      Br  0.18555081  0.52656990  0.13237568    -0.01200
Br570      Br  0.21620716  0.97507115  0.19092928    -0.01200
C571        C  0.26947084  0.94073382  0.25299294    -0.02300
C572        C  0.27324780  0.97437655  0.24872207     0.07400
C573        C  0.29194121  0.98374818  0.20941816    -0.02400
C574        C  0.30770103  0.96116138  0.18200717    -0.02400
C575        C  0.31122554  0.93003650  0.19771055     0.07500
C576        C  0.29211367  0.92023300  0.23455719    -0.02600
Br577      Br  0.29522143  0.87871409  0.26062143    -0.01200
Br578      Br  0.23010736  0.91925936  0.26370777    -0.01200
Br579      Br  0.32356597  0.97303964  0.12198949    -0.01200
Br580      Br  0.30022783  0.02664633  0.19245040    -0.01200
C581        C  0.45727934  0.70967942  0.38864138    -0.02300
C582        C  0.43446848  0.69385650  0.36496052     0.07400
C583        C  0.43461760  0.69658324  0.31766399    -0.02400
C584        C  0.45870055  0.71280608  0.29345028    -0.02400
C585        C  0.48357570  0.72882636  0.31611515     0.07500
C586        C  0.48100269  0.72752997  0.36563354    -0.02600
Br587      Br  0.00553993  0.75230404  0.40663894    -0.01200
Br588      Br  0.45414031  0.70791765  0.45456679    -0.01200
Br589      Br  0.45837350  0.70657227  0.22844600    -0.01200
Br590      Br  0.40284514  0.67467314  0.28536100    -0.01200
C591        C  0.44165170  0.52395873  0.38105018    -0.02300
C592        C  0.44893473  0.55544091  0.38525868     0.07400
C593        C  0.47534061  0.56749493  0.36384513    -0.02400
C594        C  0.48948256  0.55126437  0.32786848    -0.02400
C595        C  0.48541227  0.51778737  0.32418442     0.07500
C596        C  0.46039463  0.50464350  0.35266545    -0.02600
Br597      Br  0.45063048  0.46074993  0.35786176    -0.01200
Br598      Br  0.40619698  0.50769099  0.41583173    -0.01200
Br599      Br  0.50208045  0.58022207  0.27988488    -0.01200
Br600      Br  0.48985262  0.60816529  0.38177839    -0.01200
C601        C  0.28829547  0.55536285  0.37973696    -0.02300
C602        C  0.31906765  0.55989045  0.36500023     0.07400
C603        C  0.33168278  0.54030782  0.33109473    -0.02400
C604        C  0.31350206  0.51692025  0.31087895    -0.02400
C605        C  0.27990511  0.51711340  0.31677761     0.07500
C606        C  0.26830621  0.53614825  0.35467834    -0.02600
Br607      Br  0.22521634  0.54075468  0.37314423    -0.01200
Br608      Br  0.27359812  0.57731144  0.43373541    -0.01200
Br609      Br  0.33830776  0.98305774  0.28385521    -0.01200
Br610      Br  0.37459018  0.54613541  0.31197084    -0.01200
C611        C  0.42416590  0.69425207  0.75373443    -0.02300
C612        C  0.42650663  0.69187994  0.70641685     0.07400
C613        C  0.45208609  0.70603510  0.68343376    -0.02400
C614        C  0.47391735  0.72428627  0.70690871    -0.02400
C615        C  0.47483379  0.72339706  0.75630854     0.07500
C616        C  0.44886891  0.70676972  0.77831713    -0.02600
Br617      Br  0.44671244  0.69565518  0.84220034    -0.01200
Br618      Br  0.38777526  0.67742038  0.78594751    -0.01200
Br619      Br  0.49683948  0.75277152  0.66640249    -0.01200
Br620      Br  0.45653996  0.70140267  0.61796550    -0.01200
C621        C  0.45894815  0.54285896  0.66562972    -0.02300
C622        C  0.44274547  0.56443307  0.69334342     0.07400
C623        C  0.44961301  0.56672937  0.73893782    -0.02400
C624        C  0.46577607  0.54251504  0.75962562    -0.02400
C625        C  0.48369041  0.51987761  0.73310495     0.07500
C626        C  0.48211557  0.52354909  0.68406908    -0.02600
Br627      Br  0.01295025  0.51029844  0.63693640    -0.01200
Br628      Br  0.44932927  0.53924594  0.60199168    -0.01200
Br629      Br  0.45656644  0.54015390  0.82396609    -0.01200
Br630      Br  0.43690858  0.60345778  0.77370009    -0.01200
C631        C  0.30212492  0.56477426  0.75292303    -0.02300
C632        C  0.30552210  0.56321819  0.70559653     0.07400
C633        C  0.29185542  0.53802807  0.68329564    -0.02400
C634        C  0.27372113  0.51501352  0.70750226    -0.02400
C635        C  0.27167320  0.51437164  0.75700869     0.07500
C636        C  0.28690157  0.54066725  0.77832771    -0.02600
Br637      Br  0.29276712  0.54371217  0.84309524    -0.01200
Br638      Br  0.32213716  0.59884412  0.78398774    -0.01200
Br639      Br  0.25055894  0.48868074  0.66750612    -0.01200
Br640      Br  0.29748011  0.53606278  0.61768493    -0.01200
C641        C  0.24647539  0.95716260  0.34819878    -0.02300
C642        C  0.23358862  0.97980029  0.31667102     0.07400
C643        C  0.19999988  0.98252138  0.31946567    -0.02400
C644        C  0.18203141  0.96244659  0.34858557    -0.02400
C645        C  0.19541062  0.93624379  0.36984288     0.07500
C646        C  0.22768860  0.93420541  0.37051011    -0.02600
Br647      Br  0.24607368  0.89901205  0.40187561    -0.01200
Br648      Br  0.28977206  0.95410232  0.36207739    -0.01200
Br649      Br  0.13875083  0.97215902  0.36182207    -0.01200
Br650      Br  0.17551662  0.01456346  0.29001003    -0.01200
C651        C  0.07501258  0.93840073  0.31374654    -0.02300
C652        C  0.07016294  0.93124888  0.36009491     0.07400
C653        C  0.04553469  0.94533824  0.38462772    -0.02400
C654        C  0.02874232  0.97000501  0.36548304    -0.02400
C655        C  0.02949697  0.97459548  0.31659517     0.07500
C656        C  0.05393328  0.95794907  0.29150664    -0.02600
Br657      Br  0.05798899  0.95623023  0.22576197    -0.01200
Br658      Br  0.10997960  0.92040302  0.27889280    -0.01200
Br659      Br  0.01410574  0.50008401  0.41154166    -0.01200
Br660      Br  0.03225471  0.92897945  0.44378699    -0.01200
C661        C  0.04952283  0.81765611  0.35045823    -0.02300
C662        C  0.07674399  0.80399697  0.36656382     0.07400
C663        C  0.08202036  0.77227185  0.35793398    -0.02400
C664        C  0.05882569  0.75417948  0.33714692    -0.02400
C665        C  0.03274418  0.76884122  0.31460452     0.07500
C666        C  0.03232318  0.80249667  0.31766882    -0.02600
Br667      Br  0.51778274  0.83158853  0.27345543    -0.01200
Br668      Br  0.03416258  0.85701141  0.37350902    -0.01200
Br669      Br  0.06304334  0.70971198  0.34676960    -0.01200
Br670      Br  0.11951989  0.75321064  0.37978020    -0.01200
C671        C  0.22964331  0.91741837  0.71738864    -0.02300
C672        C  0.19733659  0.91635148  0.72102403     0.07400
C673        C  0.18194357  0.93629076  0.75167667    -0.02400
C674        C  0.19753923  0.96121431  0.77305122    -0.02400
C675        C  0.23121398  0.96562768  0.76653575     0.07500
C676        C  0.24655520  0.94062611  0.74060576    -0.02600
Br677      Br  0.29106817  0.93727550  0.73148746    -0.01200
Br678      Br  0.25038291  0.88528028  0.68153618    -0.01200
Br679      Br  0.16966656  0.98270529  0.81631966    -0.01200
Br680      Br  0.13942567  0.92513182  0.76902776    -0.01200
C681        C  0.04155974  0.93366403  0.67203212    -0.02300
C682        C  0.07273561  0.94177631  0.67077852     0.07400
C683        C  0.08257546  0.96780300  0.69369917    -0.02400
C684        C  0.06318380  0.98103415  0.72766281    -0.02400
C685        C  0.02971976  0.97575593  0.72822471     0.07500
C686        C  0.01984055  0.95079833  0.69877502    -0.02600
Br687      Br  0.47694220  0.93973029  0.68829473    -0.01200
Br688      Br  0.02927980  0.89907005  0.63436256    -0.01200
Br689      Br  0.08821964  0.99551367  0.77702784    -0.01200
Br690      Br  0.12459494  0.98240142  0.68139233    -0.01200
C691        C  0.04956735  0.75193905  0.73222472    -0.02300
C692        C  0.02401801  0.76511642  0.75965122     0.07400
C693        C  0.02565413  0.79900751  0.76533731    -0.02400
C694        C  0.04819066  0.81731697  0.74095839    -0.02400
C695        C  0.07197534  0.80347216  0.71384086     0.07500
C696        C  0.07300104  0.77081865  0.71075600    -0.02600
Br697      Br  0.10625052  0.75201198  0.67420020    -0.01200
Br698      Br  0.05310535  0.70782370  0.71856201    -0.01200
Br699      Br  0.04868563  0.86254028  0.74891018    -0.01200
Br700      Br  0.00413241  0.82340748  0.81259776    -0.01200
In701      In  0.63051186  0.37018645  0.64481862     1.36900
C702        C  0.59458441  0.41858567  0.65994296     0.77100
O703        O  0.58440874  0.34816989  0.66063155    -0.61300
O704        O  0.62326358  0.32467262  0.68657341    -0.52200
C705        C  0.63532811  0.35979829  0.55624382     0.69800
O706        O  0.61110287  0.36780013  0.57774643    -0.47100
C707        C  0.67757132  0.39761171  0.68660163     0.74500
O708        O  0.60954962  0.41590359  0.62272303    -0.58900
O709        O  0.67095485  0.36909051  0.69363213    -0.49000
O710        O  0.59935764  0.39762776  0.68912431    -0.55400
C711        C  0.59387827  0.32618613  0.68502157     0.84700
O712        O  0.65805980  0.35320107  0.58075866    -0.57300
O713        O  0.66285173  0.41023268  0.65522420    -0.60600
In714      In  0.63049056  0.37222394  0.41897575     1.36900
C715        C  0.58983460  0.40794834  0.38046548     0.77100
O716        O  0.65132186  0.42015735  0.41776974    -0.61300
O717        O  0.67557667  0.38482758  0.38022591    -0.52200
C718        C  0.63555973  0.36190171  0.50664965     0.69800
O719        O  0.61278174  0.37492229  0.48853081    -0.47100
C720        C  0.59925487  0.32279227  0.39046939     0.74500
O721        O  0.59641717  0.41096492  0.42164843    -0.58900
O722        O  0.62654168  0.32865406  0.37468343    -0.49000
O723        O  0.60382783  0.38600864  0.36001287    -0.55400
C724        C  0.67321408  0.41380902  0.38993987     0.84700
O725        O  0.65726056  0.35312200  0.47932885    -0.57300
O726        O  0.59105519  0.33897678  0.42433688    -0.60600
In727      In  0.87539154  0.11996197  0.64721460     1.36900
C728        C  0.91965973  0.08319675  0.67483249     0.77100
O729        O  0.91778583  0.15009990  0.65118078    -0.61300
O730        O  0.87830521  0.16487136  0.68927821    -0.52200
C731        C  0.86919560  0.12488849  0.55893718     0.69800
O732        O  0.88397848  0.10386176  0.57879090    -0.47100
C733        C  0.82758166  0.08553717  0.68196461     0.74500
O734        O  0.91892188  0.09299386  0.63448414    -0.58900
O735        O  0.82849537  0.11511450  0.68576956    -0.49000
O736        O  0.89710441  0.09182431  0.70040705    -0.55400
C737        C  0.90703598  0.16885918  0.68023528     0.84700
O738        O  0.85466671  0.14394609  0.58469496    -0.57300
O739        O  0.84959944  0.07452973  0.65781449    -0.60600
In740      In  0.88147583  0.11756913  0.42200803     1.36900
C741        C  0.92256835  0.07547633  0.39784092     0.77100
O742        O  0.85428203  0.07322785  0.41839775    -0.61300
O743        O  0.84025122  0.11084076  0.37634819    -0.52200
C744        C  0.87198179  0.12603245  0.50964299     0.69800
O745        O  0.89522113  0.11302138  0.49125491    -0.47100
C746        C  0.91322013  0.16733938  0.38808217     0.74500
O747        O  0.91201646  0.07678903  0.43813594    -0.58900
O748        O  0.88459017  0.16350471  0.38116910    -0.49000
O749        O  0.91195469  0.09545986  0.37057628    -0.55400
C750        C  0.83723854  0.08222959  0.38718918     0.84700
O751        O  0.85265258  0.13750321  0.48259348    -0.57300
O752        O  0.92413506  0.14738717  0.41479141    -0.62400
C753        C  0.75664774  0.50039348  0.28331717    -0.02900
In754      In  0.89178152  0.37672315  0.91995223     1.36900
C755        C  0.93124877  0.40375349  0.86222061     0.77100
O756        O  0.92994556  0.34175245  0.91818455    -0.61300
O757        O  0.88578873  0.32765402  0.89531732    -0.52200
C758        C  0.88826494  0.37444733  0.00950400     0.69800
O759        O  0.90826685  0.39032184  0.98725295    -0.47100
C760        C  0.84386577  0.41112929  0.89169193     0.74500
O761        O  0.93039291  0.41039312  0.90401724    -0.58900
O762        O  0.84632402  0.38203250  0.88451970    -0.49000
O763        O  0.91271532  0.38282802  0.85078583    -0.55400
C764        C  0.91445505  0.32134375  0.89832769     0.84700
O765        O  0.86942565  0.35965476  0.98590210    -0.57300
O766        O  0.86448545  0.42169277  0.91659748    -0.60600
In767      In  0.88755199  0.37862085  0.14864427     1.36900
C768        C  0.92109720  0.41999312  0.18747353     0.77100
O769        O  0.85874484  0.42192012  0.15467698    -0.61300
O770        O  0.83821647  0.38064685  0.18026789    -0.52200
C771        C  0.88752753  0.37416062  0.05911736     0.69800
O772        O  0.90738660  0.38903515  0.08022947    -0.47100
C773        C  0.91891578  0.32910895  0.18292046     0.74500
O774        O  0.91913751  0.41937143  0.14493039    -0.58900
O775        O  0.88982166  0.33248014  0.18918333    -0.49000
O776        O  0.90574660  0.39970348  0.20985472    -0.55400
C777        C  0.83588326  0.41013876  0.17584406     0.84700
O778        O  0.86743055  0.36002301  0.08390099    -0.57300
O779        O  0.93066526  0.34914118  0.15612773    -0.60600
In780      In  0.61727079  0.11088008  0.92118110     1.36900
C781        C  0.58003543  0.07360325  0.87845402     0.77100
O782        O  0.57492831  0.14123173  0.91799472    -0.61300
O783        O  0.61380730  0.15392501  0.87592154    -0.52200
C784        C  0.62471180  0.11661434  0.00949475     0.69800
O785        O  0.60917344  0.09519880  0.99215521    -0.47100
C786        C  0.66851772  0.08089493  0.89345432     0.74500
O787        O  0.57449529  0.08159283  0.91917484    -0.58900
O788        O  0.66519773  0.11018907  0.88736623    -0.49000
O789        O  0.60537190  0.08335073  0.86145913    -0.55400
C790        C  0.58527534  0.15832224  0.88607402     0.84700
O791        O  0.63662680  0.13607955  0.98150271    -0.57300
O792        O  0.64715842  0.06820739  0.91730893    -0.60600
In793      In  0.63087089  0.11720699  0.14795669     1.36900
C794        C  0.59323660  0.07289757  0.17607760     0.77100
O795        O  0.67813833  0.09493328  0.13742841    -0.61300
O796        O  0.66545273  0.11133078  0.20275259    -0.52200
C797        C  0.62800865  0.11790303  0.05869621     0.69800
O798        O  0.61436313  0.09806428  0.08404752    -0.47100
C799        C  0.60142948  0.16563073  0.18818172     0.74500
O800        O  0.58393110  0.09616564  0.15380855    -0.58900
O801        O  0.61588676  0.16911758  0.15043159    -0.49000
O802        O  0.62214793  0.07000726  0.17777981    -0.55400
C803        C  0.68343084  0.09414616  0.17917390     0.84700
O804        O  0.64399921  0.13795379  0.07894726    -0.57300
O805        O  0.60630531  0.13968959  0.20685167    -0.60600
C806        C  0.50560705  0.49649149  0.29040891    -0.02900
C807        C  0.50836820  0.24710820  0.28727483    -0.02900
C808        C  0.75328131  0.48974155  0.78844793    -0.02900
C809        C  0.50054881  0.24343876  0.78439213    -0.02900
C810        C  0.50479295  0.49547877  0.75899026    -0.02900
C811        C  0.58264557  0.21975174  0.21271073    -0.02300
C812        C  0.57774930  0.18764470  0.20808240     0.07400
C813        C  0.54988494  0.17502541  0.22551634    -0.02400
C814        C  0.53061311  0.19183082  0.25593631    -0.02400
C815        C  0.53213199  0.22559014  0.25775311     0.07500
C816        C  0.55950563  0.23893313  0.23442046    -0.02600
Br817      Br  0.56624505  0.28338935  0.22683731    -0.01200
Br818      Br  0.62101416  0.23730738  0.18819043    -0.01200
Br819      Br  0.01033579  0.16425168  0.30041996    -0.01200
Br820      Br  0.53643721  0.13452883  0.20566044    -0.01200
C821        C  0.55466430  0.03298478  0.27648384    -0.02300
C822        C  0.52846514  0.01723659  0.25727019     0.07400
C823        C  0.52631493  0.01977702  0.20787030    -0.02400
C824        C  0.54737789  0.03851893  0.18206089    -0.02400
C825        C  0.57207137  0.05282610  0.20257680     0.07500
C826        C  0.57595978  0.05005528  0.24924592    -0.02600
Br827      Br  0.60947020  0.07278526  0.27690580    -0.01200
Br828      Br  0.56186318  0.03574723  0.34089340    -0.01200
Br829      Br  0.54497783  0.04292700  0.11635378    -0.01200
Br830      Br  0.49925034  0.49407150  0.16850291    -0.01200
C831        C  0.52089511  0.18651037  0.81107814    -0.02300
C832        C  0.52372814  0.22020637  0.81014432     0.07400
C833        C  0.55113975  0.23176086  0.83225010    -0.02400
C834        C  0.57283301  0.21099247  0.85183918    -0.02400
C835        C  0.56468708  0.17983809  0.86058842     0.07500
C836        C  0.53690194  0.16868239  0.84314441    -0.02600
Br837      Br  0.51984470  0.12868697  0.86182815    -0.01200
Br838      Br  0.50399153  0.16037346  0.76418587    -0.01200
Br839      Br  0.61255393  0.22591042  0.87134342    -0.01200
Br840      Br  0.55887333  0.27528082  0.84502361    -0.01200
C841        C  0.71010003  0.03956693  0.89442674    -0.02300
C842        C  0.69293668  0.06155748  0.87011443     0.07400
C843        C  0.69471580  0.06134047  0.82273512    -0.02400
C844        C  0.71159348  0.03772266  0.79922103    -0.02400
C845        C  0.73018071  0.01443226  0.82238941     0.07500
C846        C  0.72939191  0.01694557  0.87184368    -0.02600
Br847      Br  0.75593506  0.99471609  0.91346030    -0.01200
Br848      Br  0.70826577  0.04276182  0.96021488    -0.01200
Br849      Br  0.70269750  0.03561636  0.73546329    -0.01200
Br850      Br  0.67076084  0.09214109  0.78959048    -0.01200
C851        C  0.52193242  0.01216918  0.84445121    -0.02300
C852        C  0.52209858  0.01592242  0.79519987     0.07400
C853        C  0.53829484  0.04342014  0.77743850    -0.02400
C854        C  0.55503840  0.06307592  0.80562857    -0.02400
C855        C  0.55846965  0.05531151  0.85148086     0.07500
C856        C  0.54173641  0.03032970  0.87090386    -0.02600
Br857      Br  0.54665598  0.02047875  0.93486528    -0.01200
Br858      Br  0.99269902  0.98840667  0.88217198    -0.01200
Br859      Br  0.57453066  0.10078383  0.78014320    -0.01200
Br860      Br  0.54402430  0.05360195  0.71338951    -0.01200
C861        C  0.96872125  0.42760311  0.22597994    -0.02300
C862        C  0.94185514  0.44074291  0.20978614     0.07400
C863        C  0.93352186  0.47156195  0.21988030    -0.02400
C864        C  0.95371089  0.49011733  0.24488267    -0.02400
C865        C  0.98108499  0.47632063  0.26442972     0.07500
C866        C  0.98441090  0.44282918  0.25943621    -0.02600
Br867      Br  0.49826584  0.41221915  0.30493795    -0.01200
Br868      Br  0.98364386  0.38780177  0.20293005    -0.01200
Br869      Br  0.94562465  0.03354588  0.24266845    -0.01200
Br870      Br  0.89660234  0.48898074  0.19376428    -0.01200
C871        C  0.93665372  0.30291289  0.25457241    -0.02300
C872        C  0.93880780  0.30566833  0.20721955     0.07400
C873        C  0.96268755  0.28937448  0.18372539    -0.02400
C874        C  0.98501205  0.27086822  0.20690855    -0.02400
C875        C  0.98507729  0.26942114  0.25650694     0.07500
C876        C  0.95960664  0.28652423  0.27892849    -0.02600
Br877      Br  0.95633943  0.29290038  0.34391380    -0.01200
Br878      Br  0.90238268  0.32358568  0.28691403    -0.01200
Br879      Br  0.51073136  0.24492202  0.16530385    -0.01200
Br880      Br  0.96214787  0.29031193  0.11778326    -0.01200
C881        C  0.98265935  0.42167569  0.83102586    -0.02300
C882        C  0.95047535  0.42102295  0.82868225     0.07400
C883        C  0.93580610  0.43898337  0.79619699    -0.02400
C884        C  0.95123826  0.46464096  0.77559016    -0.02400
C885        C  0.98465041  0.46858958  0.78062134     0.07500
C886        C  0.00003760  0.44332258  0.80432890    -0.02600
Br887      Br  0.54415048  0.43864997  0.81029454    -0.01200
Br888      Br  0.00249882  0.39350037  0.87298670    -0.01200
Br889      Br  0.92344641  0.48871912  0.73754101    -0.01200
Br890      Br  0.89482971  0.42612422  0.77788744    -0.01200
C891        C  0.92633515  0.29187599  0.82784007    -0.02300
C892        C  0.93041104  0.29513543  0.87436764     0.07400
C893        C  0.95477766  0.27910357  0.89470257    -0.02400
C894        C  0.97597096  0.26038562  0.86854825    -0.02400
C895        C  0.97594530  0.26127547  0.81897100     0.07500
C896        C  0.94981942  0.27801677  0.80017106    -0.02600
Br897      Br  0.94746649  0.28960178  0.73681267    -0.01200
Br898      Br  0.88980062  0.30990197  0.80052106    -0.01200
Br899      Br  0.50111717  0.23301923  0.90593617    -0.01200
Br900      Br  0.95720749  0.28179700  0.96031300    -0.01200
C901        C  0.82914667  0.46016693  0.84978169    -0.02300
C902        C  0.82023497  0.43154000  0.86979710     0.07400
C903        C  0.78979786  0.42117979  0.86405137    -0.02400
C904        C  0.76796596  0.44033691  0.84139939    -0.02400
C905        C  0.77743152  0.46864815  0.81670463     0.07500
C906        C  0.81061320  0.47423900  0.81682238    -0.02600
Br907      Br  0.83527907  0.99345635  0.77289887    -0.01200
Br908      Br  0.86803072  0.47987101  0.86398864    -0.01200
Br909      Br  0.72552532  0.42668185  0.85089695    -0.01200
Br910      Br  0.77720533  0.38167020  0.89175862    -0.01200
C911        C  0.74334921  0.05841616  0.25603327    -0.02300
C912        C  0.74008744  0.02483300  0.25010433     0.07400
C913        C  0.72236742  0.01672258  0.21095102    -0.02400
C914        C  0.70677860  0.03997436  0.18521409    -0.02400
C915        C  0.70527217  0.07135644  0.19993724     0.07500
C916        C  0.72216228  0.07971610  0.23751055    -0.02600
Br917      Br  0.71900940  0.12178042  0.26155349    -0.01200
Br918      Br  0.78152450  0.08012282  0.26846846    -0.01200
Br919      Br  0.68410685  0.02765456  0.13232898    -0.01200
Br920      Br  0.71350800  0.47470516  0.19682970    -0.01200
C921        C  0.76875002  0.44111995  0.25246331    -0.02300
C922        C  0.77329071  0.47499240  0.24954583     0.07400
C923        C  0.79210351  0.48445964  0.21034324    -0.02400
C924        C  0.80766673  0.46209506  0.18219093    -0.02400
C925        C  0.81041385  0.43053392  0.19614588     0.07500
C926        C  0.79028081  0.42012585  0.23148444    -0.02600
Br927      Br  0.78968621  0.37634185  0.24952164    -0.01200
Br928      Br  0.72978366  0.41985518  0.26800401    -0.01200
Br929      Br  0.82352125  0.47465104  0.12246280    -0.01200
Br930      Br  0.80087050  0.52748008  0.19435145    -0.01200
C931        C  0.95609693  0.20735492  0.38878130    -0.02300
C932        C  0.93375894  0.19119810  0.36459222     0.07400
C933        C  0.93415571  0.19417626  0.31728075    -0.02400
C934        C  0.95813575  0.21085645  0.29360554    -0.02400
C935        C  0.98251500  0.22721888  0.31679876     0.07500
C936        C  0.97972894  0.22559587  0.36627377    -0.02600
Br937      Br  0.50485100  0.24888357  0.40851956    -0.01200
Br938      Br  0.95202442  0.20606816  0.45466208    -0.01200
Br939      Br  0.95839548  0.20496123  0.22853779    -0.01200
Br940      Br  0.90265764  0.17254884  0.28403933    -0.01200
C941        C  0.93989842  0.02185000  0.37785725    -0.02300
C942        C  0.94645425  0.05349203  0.38270745     0.07400
C943        C  0.97287657  0.06629469  0.36238960    -0.02400
C944        C  0.98823250  0.05045465  0.32712031    -0.02400
C945        C  0.98497654  0.01690995  0.32309272     0.07500
C946        C  0.95969880  0.00305463  0.35026002    -0.02600
Br947      Br  0.95122791  0.95874363  0.35471477    -0.01200
Br948      Br  0.90414600  0.00451947  0.41068362    -0.01200
Br949      Br  0.00201809  0.07977357  0.28028579    -0.01200
Br950      Br  0.98572207  0.10749450  0.38078033    -0.01200
C951        C  0.78624550  0.05605439  0.37646308    -0.02300
C952        C  0.81738598  0.05982089  0.36345344     0.07400
C953        C  0.83065918  0.04015459  0.33016540    -0.02400
C954        C  0.81295765  0.01678451  0.30940038    -0.02400
C955        C  0.77937680  0.01687039  0.31454931     0.07500
C956        C  0.76689415  0.03652681  0.35112239    -0.02600
Br957      Br  0.72334259  0.04185191  0.36649070    -0.01200
Br958      Br  0.77021081  0.07947015  0.42836533    -0.01200
Br959      Br  0.83877196  0.48467633  0.28428454    -0.01200
Br960      Br  0.87344113  0.04673571  0.31088763    -0.01200
C961        C  0.92583769  0.19309700  0.75171346    -0.02300
C962        C  0.92789013  0.19099053  0.70430128     0.07400
C963        C  0.95285337  0.20607130  0.68107479    -0.02400
C964        C  0.97432406  0.22485807  0.70443563    -0.02400
C965        C  0.97551863  0.22386731  0.75377816     0.07500
C966        C  0.95016193  0.20654657  0.77606692    -0.02600
Br967      Br  0.94835454  0.19619783  0.84025084    -0.01200
Br968      Br  0.89039648  0.17475791  0.78445216    -0.01200
Br969      Br  0.99616858  0.25439094  0.66423258    -0.01200
Br970      Br  0.95684625  0.20213299  0.61552465    -0.01200
C971        C  0.96029848  0.04111062  0.66460567    -0.02300
C972        C  0.94486970  0.06359171  0.69173173     0.07400
C973        C  0.95201309  0.06616822  0.73716558    -0.02400
C974        C  0.96680808  0.04141658  0.75847674    -0.02400
C975        C  0.98447687  0.01832130  0.73272546     0.07500
C976        C  0.98304237  0.02143310  0.68355492    -0.02600
Br977      Br  0.51240515  0.00584111  0.63823502    -0.01200
Br978      Br  0.94993449  0.03650236  0.60143905    -0.01200
Br979      Br  0.95489505  0.03816464  0.82190291    -0.01200
Br980      Br  0.94117658  0.10359821  0.77119441    -0.01200
C981        C  0.80139917  0.06665238  0.75426792    -0.02300
C982        C  0.80485480  0.06451970  0.70709224     0.07400
C983        C  0.79027563  0.03974781  0.68518912    -0.02400
C984        C  0.77210531  0.01697826  0.70985775    -0.02400
C985        C  0.77056112  0.01643360  0.75938729     0.07500
C986        C  0.78578610  0.04300971  0.78014426    -0.02600
Br987      Br  0.79186607  0.04682735  0.84464385    -0.01200
Br988      Br  0.82193839  0.10089124  0.78425947    -0.01200
Br989      Br  0.74805816  0.99094868  0.67049771    -0.01200
Br990      Br  0.79434086  0.03852116  0.61943029    -0.01200
C991        C  0.74522610  0.45917632  0.34933196    -0.02300
C992        C  0.73308020  0.48171480  0.31715624     0.07400
C993        C  0.69950213  0.48543704  0.31944834    -0.02400
C994        C  0.68058293  0.46472598  0.34633756    -0.02400
C995        C  0.69348639  0.43889844  0.36922016     0.07500
C996        C  0.72564866  0.43750678  0.37300817    -0.02600
Br997      Br  0.74269255  0.40459363  0.41044267    -0.01200
Br998      Br  0.78880583  0.45340728  0.35984851    -0.01200
Br999      Br  0.63643799  0.47287134  0.35409166    -0.01200
Br1000     Br  0.67662944  0.52058512  0.29423321    -0.01200
C1001       C  0.57256985  0.43580573  0.31106393    -0.02300
C1002       C  0.56841775  0.42920049  0.35764926     0.07400
C1003       C  0.54516110  0.44462673  0.38330921    -0.02400
C1004       C  0.52904420  0.46990702  0.36473374    -0.02400
C1005       C  0.52911540  0.47443060  0.31593106     0.07500
C1006       C  0.55232467  0.45673940  0.28980791    -0.02600
Br1007     Br  0.55648319  0.45631813  0.22402260    -0.01200
Br1008     Br  0.60558212  0.41547126  0.27473989    -0.01200
Br1009     Br  0.51409022  0.99847910  0.41257190    -0.01200
Br1010     Br  0.53316643  0.42974636  0.44387183    -0.01200
C1011       C  0.54818030  0.31584110  0.35410985    -0.02300
C1012       C  0.57636463  0.30265418  0.36756066     0.07400
C1013       C  0.58188556  0.27109953  0.35811590    -0.02400
C1014       C  0.55829654  0.25280473  0.33869860    -0.02400
C1015       C  0.53157223  0.26723702  0.31733620     0.07500
C1016       C  0.53029954  0.30082473  0.32192925    -0.02600
Br1017     Br  0.01397240  0.33108825  0.27753770    -0.01200
Br1018     Br  0.53257097  0.35443444  0.37976150    -0.01200
Br1019     Br  0.56309474  0.20840579  0.34857398    -0.01200
Br1020     Br  0.62041458  0.25246425  0.37700752    -0.01200
C1021       C  0.72934762  0.41659481  0.71304331    -0.02300
C1022       C  0.69706203  0.41686299  0.71637627     0.07400
C1023       C  0.68216730  0.43687252  0.74737861    -0.02400
C1024       C  0.69855923  0.46066117  0.76978878    -0.02400
C1025       C  0.73227264  0.46432111  0.76261550     0.07500
C1026       C  0.74694110  0.43907153  0.73643267    -0.02600
Br1027     Br  0.79132366  0.43408470  0.72758422    -0.01200
Br1028     Br  0.74897780  0.38389691  0.67695974    -0.01200
Br1029     Br  0.67196827  0.48057082  0.81638161    -0.01200
Br1030     Br  0.63928214  0.42681745  0.76440964    -0.01200
C1031       C  0.54097108  0.43527876  0.67100197    -0.02300
C1032       C  0.57214841  0.44324013  0.66960482     0.07400
C1033       C  0.58220130  0.46961372  0.69148149    -0.02400
C1034       C  0.56293380  0.48343175  0.72510540    -0.02400
C1035       C  0.52943611  0.47796605  0.72621964     0.07500
C1036       C  0.51936885  0.45308224  0.69676088    -0.02600
Br1037     Br  0.97680234  0.44359811  0.68327371    -0.01200
Br1038     Br  0.52853124  0.39962245  0.63547541    -0.01200
Br1039     Br  0.58843244  0.49884339  0.77338574    -0.01200
Br1040     Br  0.62445092  0.48355323  0.67878913    -0.01200
C1041       C  0.54956664  0.25393710  0.72892578    -0.02300
C1042       C  0.52392847  0.26680797  0.75651108     0.07400
C1043       C  0.52493634  0.30074948  0.76194594    -0.02400
C1044       C  0.54738201  0.31925404  0.73777544    -0.02400
C1045       C  0.57138176  0.30560829  0.71099842     0.07500
C1046       C  0.57281881  0.27305709  0.70774970    -0.02600
Br1047     Br  0.60650530  0.25484756  0.67135088    -0.01200
Br1048     Br  0.55363291  0.20998886  0.71470178    -0.01200
Br1049     Br  0.54759275  0.36443022  0.74549350    -0.01200
Br1050     Br  0.50255538  0.32512929  0.80832198    -0.01200
In1051     In  0.63111029  0.86785120  0.64885802     1.36900
C1052       C  0.59504344  0.91673673  0.66221464     0.77100
O1053       O  0.58467254  0.84730202  0.66617202    -0.61300
O1054       O  0.62309305  0.82054637  0.68658715    -0.52200
C1055       C  0.63614857  0.85743724  0.55998678     0.69800
O1056       O  0.61160558  0.86412677  0.58172687    -0.47100
C1057       C  0.67810278  0.89521192  0.69230291     0.74500
O1058       O  0.60965579  0.91315685  0.62489808    -0.58900
O1059       O  0.66778761  0.86852051  0.70392057    -0.49000
O1060       O  0.60028147  0.89653587  0.69223585    -0.55400
C1061       C  0.59369480  0.82367329  0.68756941     0.84700
O1062       O  0.65916254  0.85172811  0.58446657    -0.57300
O1063       O  0.66721137  0.90555049  0.65605567    -0.60600
In1064     In  0.63120595  0.87201106  0.42234844     1.36900
C1065       C  0.59166567  0.90931102  0.38317849     0.77100
O1066       O  0.65480018  0.91856120  0.42204131    -0.61300
O1067       O  0.67614280  0.88277851  0.38193105    -0.52200
C1068       C  0.63637721  0.86045186  0.51028264     0.69800
O1069       O  0.61420014  0.87485836  0.49264863    -0.47100
C1070       C  0.59908026  0.82364988  0.39181755     0.74500
O1071       O  0.59738998  0.91157988  0.42484033    -0.58900
O1072       O  0.62716204  0.82820482  0.37856836    -0.49000
O1073       O  0.60601606  0.88761675  0.36271112    -0.55400
C1074       C  0.67542010  0.91164845  0.39245068     0.84700
O1075       O  0.65743291  0.85100952  0.48239868    -0.57300
O1076       O  0.59007945  0.84067942  0.42441032    -0.60600
In1077     In  0.87453476  0.62212280  0.64743288     1.36900
C1078       C  0.91791966  0.58468565  0.67547616     0.77100
O1079       O  0.91685367  0.65158454  0.65354389    -0.61300
O1080       O  0.87713160  0.66676141  0.69064009    -0.52200
C1081       C  0.87054211  0.62854220  0.55886552     0.69800
O1082       O  0.88729265  0.60923346  0.57886630    -0.47100
C1083       C  0.82746987  0.58597761  0.67987022     0.74500
O1084       O  0.91739354  0.59454365  0.63518943    -0.58900
O1085       O  0.82783238  0.61542300  0.68555482    -0.49000
O1086       O  0.89536005  0.59346796  0.70092386    -0.55400
C1087       C  0.90600329  0.67040557  0.68233717     0.84700
O1088       O  0.85314257  0.64522971  0.58452707    -0.57300
O1089       O  0.84932156  0.57615352  0.65429581    -0.60600
In1090     In  0.88326591  0.62041780  0.42209205     1.36900
C1091       C  0.92490572  0.57831209  0.39949161     0.77100
O1092       O  0.85267094  0.57771225  0.42313756    -0.61300
O1093       O  0.84552097  0.61112998  0.37114888    -0.52200
C1094       C  0.87365073  0.62986033  0.50952433     0.69800
O1095       O  0.89754150  0.61782586  0.49137245    -0.47100
C1096       C  0.91422564  0.67074451  0.38865541     0.74500
O1097       O  0.91372359  0.57971230  0.43943744    -0.58900
O1098       O  0.88524707  0.66745884  0.38372669    -0.49000
O1099       O  0.91471911  0.59824429  0.37187414    -0.55400
C1100       C  0.83906398  0.58428327  0.38725941     0.84700
O1101       O  0.85384141  0.64012652  0.48222310    -0.57300
O1102       O  0.92592350  0.64997984  0.41327314    -0.62400
C1103       C  0.75646238  0.99883640  0.28188021    -0.02900
In1104     In  0.88844277  0.87480568  0.92092312     1.36900
C1105       C  0.92775764  0.90368337  0.86455176     0.77100
O1106       O  0.92754376  0.84078618  0.91898856    -0.61300
O1107       O  0.88387432  0.82550686  0.89569606    -0.52200
C1108       C  0.88526469  0.87303376  0.01028995     0.69800
O1109       O  0.90465704  0.88928282  0.98753403    -0.47100
C1110       C  0.84033256  0.90932350  0.89358356     0.74500
O1111       O  0.92749058  0.90847820  0.90685146    -0.58900
O1112       O  0.84314264  0.88051732  0.88432578    -0.49000
O1113       O  0.90852475  0.88379589  0.85189172    -0.55400
C1114       C  0.91272633  0.82008631  0.89874376     0.84700
O1115       O  0.86667798  0.85741995  0.98727227    -0.57300
O1116       O  0.86025654  0.91906448  0.92027531    -0.60600
In1117     In  0.88745768  0.87798723  0.14884464     1.36900
C1118       C  0.92191560  0.91922472  0.18668029     0.77100
O1119       O  0.85910274  0.92103070  0.15591173    -0.61300
O1120       O  0.83848660  0.87961260  0.18146434    -0.52200
C1121       C  0.88523107  0.87320972  0.05979117     0.69800
O1122       O  0.90503765  0.88892845  0.07975324    -0.47100
C1123       C  0.91927299  0.82875882  0.18164148     0.74500
O1124       O  0.91946169  0.91851413  0.14421471    -0.58900
O1125       O  0.89050276  0.83270350  0.19029415    -0.49000
O1126       O  0.90667592  0.89905657  0.20945214    -0.55400
C1127       C  0.83635522  0.90911652  0.17713600     0.84700
O1128       O  0.86609440  0.85856533  0.08555205    -0.57300
O1129       O  0.93031528  0.84789860  0.15285923    -0.60600
In1130     In  0.61786475  0.60858110  0.92039120     1.36900
C1131       C  0.58041247  0.57144326  0.87918436     0.77100
O1132       O  0.57469202  0.63799221  0.91881356    -0.61300
O1133       O  0.61263224  0.65192490  0.87581866    -0.52200
C1134       C  0.62494500  0.61486936  0.00826217     0.69800
O1135       O  0.61045551  0.59269066  0.99100569    -0.47100
C1136       C  0.66918438  0.57859686  0.89141310     0.74500
O1137       O  0.57538119  0.57892490  0.92019978    -0.58900
O1138       O  0.66546544  0.60781954  0.88491102    -0.49000
O1139       O  0.60552857  0.58116253  0.86145152    -0.55400
C1140       C  0.58419305  0.65579114  0.88722445     0.84700
O1141       O  0.63654104  0.63454917  0.98027561    -0.57300
O1142       O  0.64826802  0.56606441  0.91629876    -0.60600
In1143     In  0.62938825  0.61627026  0.14660326     1.36900
C1144       C  0.59119399  0.57243769  0.17408957     0.77100
O1145       O  0.67638490  0.59338877  0.13619439    -0.61300
O1146       O  0.66460502  0.61090353  0.20116667    -0.52200
C1147       C  0.62737937  0.61673402  0.05742149     0.69800
O1148       O  0.61416716  0.59650996  0.08255010    -0.47100
C1149       C  0.59935539  0.66434484  0.18667142     0.74500
O1150       O  0.58211286  0.59572325  0.15160366    -0.58900
O1151       O  0.61600510  0.66851533  0.15092406    -0.49000
O1152       O  0.62010533  0.56937279  0.17632734    -0.55400
C1153       C  0.68243753  0.59348225  0.17763985     0.84700
O1154       O  0.64213096  0.63760603  0.07788163    -0.57300
O1155       O  0.60198085  0.63754957  0.20370968    -0.60600
C1156       C  0.50676480  0.99640174  0.29028998    -0.02900
C1157       C  0.50897961  0.74865943  0.28583525    -0.02900
C1158       C  0.75183840  0.99127882  0.79188263    -0.02900
C1159       C  0.49902308  0.74199569  0.78746777    -0.02900
C1160       C  0.50476547  0.99398328  0.76027003    -0.02900
C1161       C  0.58294349  0.71866333  0.21296409    -0.02300
C1162       C  0.57636172  0.68706737  0.20648892     0.07400
C1163       C  0.54761025  0.67567975  0.22261175    -0.02400
C1164       C  0.52926834  0.69282457  0.25383666    -0.02400
C1165       C  0.53212162  0.72644208  0.25636499     0.07500
C1166       C  0.56025246  0.73872789  0.23376962    -0.02600
Br1167     Br  0.56885489  0.78274014  0.22549309    -0.01200
Br1168     Br  0.62326967  0.73428112  0.19322375    -0.01200
Br1169     Br  0.01012405  0.66539334  0.29955696    -0.01200
Br1170     Br  0.53193146  0.63655052  0.20062768    -0.01200
C1171       C  0.55366283  0.53263456  0.27512760    -0.02300
C1172       C  0.52720429  0.51687793  0.25666025     0.07400
C1173       C  0.52443156  0.51939809  0.20735115    -0.02400
C1174       C  0.54517946  0.53816235  0.18098402    -0.02400
C1175       C  0.56988027  0.55282784  0.20097921     0.07500
C1176       C  0.57404578  0.55049560  0.24757893    -0.02600
Br1177     Br  0.60636376  0.57528122  0.27477473    -0.01200
Br1178     Br  0.56288671  0.53406131  0.33888659    -0.01200
Br1179     Br  0.54213287  0.54236594  0.11537344    -0.01200
Br1180     Br  0.50139587  0.99477977  0.16823619    -0.01200
C1181       C  0.51878250  0.68486969  0.81483827    -0.02300
C1182       C  0.52181365  0.71856747  0.81378898     0.07400
C1183       C  0.54896300  0.73000404  0.83672246    -0.02400
C1184       C  0.57052572  0.70920190  0.85666843    -0.02400
C1185       C  0.56288990  0.67775157  0.86366848     0.07500
C1186       C  0.53486267  0.66689790  0.84670540    -0.02600
Br1187     Br  0.51696747  0.62766408  0.86722855    -0.01200
Br1188     Br  0.50125166  0.65873987  0.76851678    -0.01200
Br1189     Br  0.60884758  0.72444047  0.88080508    -0.01200
Br1190     Br  0.55651868  0.77342630  0.84991992    -0.01200
C1191       C  0.71069526  0.53685592  0.89157152    -0.02300
C1192       C  0.69355634  0.55916512  0.86764793     0.07400
C1193       C  0.69540197  0.55920711  0.82018454    -0.02400
C1194       C  0.71283022  0.53607774  0.79629478    -0.02400
C1195       C  0.73161380  0.51280372  0.81916287     0.07500
C1196       C  0.73023105  0.51456689  0.86861643    -0.02600
Br1197     Br  0.75540134  0.49061003  0.90984063    -0.01200
Br1198     Br  0.70789933  0.53840593  0.95746498    -0.01200
Br1199     Br  0.70447245  0.53439357  0.73229577    -0.01200
Br1200     Br  0.67044588  0.58930456  0.78735371    -0.01200
C1201       C  0.52218331  0.51127998  0.84361270    -0.02300
C1202       C  0.52184973  0.51664204  0.79469194     0.07400
C1203       C  0.53710471  0.54500700  0.77842886    -0.02400
C1204       C  0.55367525  0.56394462  0.80760034    -0.02400
C1205       C  0.55832612  0.55420721  0.85233756     0.07500
C1206       C  0.54256560  0.52824967  0.87043340    -0.02600
Br1207     Br  0.54966264  0.51533014  0.93265861    -0.01200
Br1208     Br  0.99229844  0.48761092  0.87999564    -0.01200
Br1209     Br  0.57199617  0.60293614  0.78469515    -0.01200
Br1210     Br  0.54216577  0.55725905  0.71503980    -0.01200
C1211       C  0.96988478  0.92670217  0.22456850    -0.02300
C1212       C  0.94303696  0.93995341  0.20849959     0.07400
C1213       C  0.93484920  0.97076254  0.21865638    -0.02400
C1214       C  0.95506870  0.98926248  0.24366651    -0.02400
C1215       C  0.98251832  0.97549136  0.26323756     0.07500
C1216       C  0.98607197  0.94203732  0.25759922    -0.02600
Br1217     Br  0.50241346  0.91211831  0.30058738    -0.01200
Br1218     Br  0.98347314  0.88618450  0.20234596    -0.01200
Br1219     Br  0.94489388  0.53449381  0.24313868    -0.01200
Br1220     Br  0.89743217  0.98800081  0.19370593    -0.01200
C1221       C  0.93881152  0.80479035  0.25340803    -0.02300
C1222       C  0.93969198  0.80597182  0.20593151     0.07400
C1223       C  0.96291676  0.78900016  0.18211379    -0.02400
C1224       C  0.98585735  0.77121426  0.20510154    -0.02400
C1225       C  0.98672340  0.77064451  0.25466886     0.07500
C1226       C  0.96208196  0.78872050  0.27738148    -0.02600
Br1227     Br  0.96033534  0.79678728  0.34198517    -0.01200
Br1228     Br  0.90594962  0.82729270  0.28642098    -0.01200
Br1229     Br  0.51189989  0.74695811  0.16401670    -0.01200
Br1230     Br  0.96061974  0.78802213  0.11632822    -0.01200
C1231       C  0.97978235  0.92145518  0.83522123    -0.02300
C1232       C  0.94761018  0.92141949  0.83207438     0.07400
C1233       C  0.93381043  0.93944329  0.79877157    -0.02400
C1234       C  0.95021402  0.96438710  0.77768371    -0.02400
C1235       C  0.98369075  0.96772738  0.78355206     0.07500
C1236       C  0.99802715  0.94246703  0.80855015    -0.02600
Br1237     Br  0.54206618  0.93716435  0.81471574    -0.01200
Br1238     Br  0.99852278  0.89243997  0.87712490    -0.01200
Br1239     Br  0.92352173  0.98808737  0.73746087    -0.01200
Br1240     Br  0.89284491  0.92729397  0.77928280    -0.01200
C1241       C  0.92805178  0.79397316  0.82693984    -0.02300
C1242       C  0.92958659  0.79474262  0.87413604     0.07400
C1243       C  0.95236671  0.77716633  0.89564621    -0.02400
C1244       C  0.97479339  0.75935586  0.87022503    -0.02400
C1245       C  0.97634391  0.76100301  0.82064547     0.07500
C1246       C  0.95168121  0.77923191  0.80051589    -0.02600
Br1247     Br  0.95174137  0.79115140  0.73707728    -0.01200
Br1248     Br  0.89490745  0.81677580  0.79767095    -0.01200
Br1249     Br  0.49789750  0.73131291  0.90892968    -0.01200
Br1250     Br  0.95064763  0.77652155  0.96162722    -0.01200
C1251       C  0.82728506  0.95932028  0.85300928    -0.02300
C1252       C  0.81738950  0.93067711  0.87197733     0.07400
C1253       C  0.78644590  0.92189056  0.86683433    -0.02400
C1254       C  0.76518739  0.94268735  0.84613833    -0.02400
C1255       C  0.77565274  0.97033961  0.82082029     0.07500
C1256       C  0.80904881  0.97498342  0.82103199    -0.02600
Br1257     Br  0.83633822  0.49060307  0.76653430    -0.01200
Br1258     Br  0.86697014  0.97700528  0.86815003    -0.01200
Br1259     Br  0.72216290  0.93310081  0.86053234    -0.01200
Br1260     Br  0.77245660  0.88238308  0.89277414    -0.01200
C1261       C  0.74395386  0.56015614  0.25490249    -0.02300
C1262       C  0.74023458  0.52630209  0.25110119     0.07400
C1263       C  0.72171845  0.51729902  0.21312487    -0.02400
C1264       C  0.70620602  0.53977896  0.18604367    -0.02400
C1265       C  0.70524549  0.57156797  0.19832035     0.07500
C1266       C  0.72374274  0.58142934  0.23334126    -0.02600
Br1267     Br  0.72387233  0.62572235  0.24795161    -0.01200
Br1268     Br  0.78074737  0.58178298  0.27341315    -0.01200
Br1269     Br  0.68376864  0.52619715  0.13352289    -0.01200
Br1270     Br  0.71598202  0.97445805  0.19094066    -0.01200
C1271       C  0.76955316  0.94025425  0.25275082    -0.02300
C1272       C  0.77332885  0.97391398  0.24831063     0.07400
C1273       C  0.79183607  0.98313975  0.20871655    -0.02400
C1274       C  0.80741787  0.96046137  0.18126560    -0.02400
C1275       C  0.81102291  0.92940165  0.19709910     0.07500
C1276       C  0.79210788  0.91969011  0.23418442    -0.02600
Br1277     Br  0.79527805  0.87814066  0.26014707    -0.01200
Br1278     Br  0.73023092  0.91876233  0.26380563    -0.01200
Br1279     Br  0.82285837  0.97203417  0.12089451    -0.01200
Br1280     Br  0.80006513  0.02592818  0.19113968    -0.01200
C1281       C  0.95701197  0.71081849  0.38834830    -0.02300
C1282       C  0.93437098  0.69470215  0.36475043     0.07400
C1283       C  0.93464954  0.69707596  0.31742275    -0.02400
C1284       C  0.95886567  0.71300169  0.29312114    -0.02400
C1285       C  0.98365165  0.72920893  0.31569003     0.07500
C1286       C  0.98088447  0.72839081  0.36521725    -0.02600
Br1287     Br  0.50573202  0.75113700  0.40727773    -0.01200
Br1288     Br  0.95324296  0.71005337  0.45424751    -0.01200
Br1289     Br  0.95891051  0.70596660  0.22829471    -0.01200
Br1290     Br  0.90276068  0.67525160  0.28524095    -0.01200
C1291       C  0.94097560  0.52434808  0.38024157    -0.02300
C1292       C  0.94844950  0.55577528  0.38478042     0.07400
C1293       C  0.97491133  0.56777009  0.36344306    -0.02400
C1294       C  0.98896938  0.55160461  0.32736416    -0.02400
C1295       C  0.98480334  0.51819157  0.32350444     0.07500
C1296       C  0.95970401  0.50503212  0.35181672    -0.02600
Br1297     Br  0.95001772  0.46108692  0.35694917    -0.01200
Br1298     Br  0.90538755  0.50811231  0.41471532    -0.01200
Br1299     Br  0.00179716  0.58052110  0.27955981    -0.01200
Br1300     Br  0.98969525  0.60824996  0.38171326    -0.01200
C1301       C  0.78830182  0.55644660  0.37937268    -0.02300
C1302       C  0.81905755  0.56108475  0.36466892     0.07400
C1303       C  0.83174122  0.54162101  0.33066740    -0.02400
C1304       C  0.81367784  0.51816905  0.31034957    -0.02400
C1305       C  0.78009198  0.51804595  0.31639337     0.07500
C1306       C  0.76845872  0.53685757  0.35459160    -0.02600
Br1307     Br  0.72558200  0.54009764  0.37478699    -0.01200
Br1308     Br  0.77336719  0.57905569  0.43272800    -0.01200
Br1309     Br  0.83843031  0.98367161  0.28286124    -0.01200
Br1310     Br  0.87455802  0.54783526  0.31135438    -0.01200
C1311       C  0.92491510  0.69447952  0.75385307    -0.02300
C1312       C  0.92701683  0.69226753  0.70651055     0.07400
C1313       C  0.95252799  0.70644027  0.68336048    -0.02400
C1314       C  0.97473023  0.72431635  0.70675354    -0.02400
C1315       C  0.97572747  0.72346354  0.75612654     0.07500
C1316       C  0.94975934  0.70687741  0.77826650    -0.02600
Br1317     Br  0.94769088  0.69572187  0.84214710    -0.01200
Br1318     Br  0.88855054  0.67776797  0.78632180    -0.01200
Br1319     Br  0.99837098  0.75214074  0.66622802    -0.01200
Br1320     Br  0.95622545  0.70246957  0.61772041    -0.01200
C1321       C  0.95933668  0.54356697  0.66443566    -0.02300
C1322       C  0.94305353  0.56502257  0.69231720     0.07400
C1323       C  0.95003129  0.56722846  0.73787534    -0.02400
C1324       C  0.96590184  0.54282073  0.75846608    -0.02400
C1325       C  0.98382534  0.52026607  0.73188130     0.07500
C1326       C  0.98243779  0.52415190  0.68286174    -0.02600
Br1327     Br  0.51234256  0.50945657  0.63794970    -0.01200
Br1328     Br  0.95030053  0.54052644  0.60051459    -0.01200
Br1329     Br  0.95615020  0.54003769  0.82262073    -0.01200
Br1330     Br  0.93818597  0.60416952  0.77268601    -0.01200
C1331       C  0.80252739  0.56532862  0.75207197    -0.02300
C1332       C  0.80573519  0.56381671  0.70474786     0.07400
C1333       C  0.79198110  0.53869151  0.68246985    -0.02400
C1334       C  0.77385883  0.51570469  0.70673282    -0.02400
C1335       C  0.77198886  0.51500077  0.75626038     0.07500
C1336       C  0.78728091  0.54127418  0.77753163    -0.02600
Br1337     Br  0.79318191  0.54439456  0.84227072    -0.01200
Br1338     Br  0.82296808  0.59921513  0.78295607    -0.01200
Br1339     Br  0.75044043  0.48959214  0.66675408    -0.01200
Br1340     Br  0.79755088  0.53677517  0.61684904    -0.01200
C1341       C  0.74656032  0.95697464  0.34780860    -0.02300
C1342       C  0.73362764  0.97953434  0.31621271     0.07400
C1343       C  0.70003463  0.98222772  0.31901188    -0.02400
C1344       C  0.68208251  0.96227342  0.34836301    -0.02400
C1345       C  0.69548431  0.93621000  0.36997774     0.07500
C1346       C  0.72777700  0.93418022  0.37052982    -0.02600
Br1347     Br  0.74619725  0.89912508  0.40215576    -0.01200
Br1348     Br  0.79002648  0.95352177  0.36061422    -0.01200
Br1349     Br  0.63874633  0.97191467  0.36123166    -0.01200
Br1350     Br  0.67550800  0.01402405  0.28904882    -0.01200
C1351       C  0.57535840  0.93790478  0.31345972    -0.02300
C1352       C  0.57050436  0.93076956  0.35982918     0.07400
C1353       C  0.54602693  0.94504441  0.38441446    -0.02400
C1354       C  0.52957622  0.97000031  0.36549871    -0.02400
C1355       C  0.53033146  0.97476208  0.31666576     0.07500
C1356       C  0.55463954  0.95801488  0.29141932    -0.02600
Br1357     Br  0.55897215  0.95695664  0.22567158    -0.01200
Br1358     Br  0.60958847  0.91885829  0.27823742    -0.01200
Br1359     Br  0.51516430  0.49918729  0.41173639    -0.01200
Br1360     Br  0.53227716  0.92840288  0.44318821    -0.01200
C1361       C  0.54935444  0.81737953  0.35148051    -0.02300
C1362       C  0.57663041  0.80374123  0.36748958     0.07400
C1363       C  0.58193412  0.77201958  0.35871082    -0.02400
C1364       C  0.55879853  0.75393230  0.33771470    -0.02400
C1365       C  0.53261769  0.76860620  0.31540610     0.07500
C1366       C  0.53212462  0.80225459  0.31868232    -0.02600
Br1367     Br  0.01797002  0.83175118  0.27240872    -0.01200
Br1368     Br  0.53402107  0.85677302  0.37443029    -0.01200
Br1369     Br  0.56335758  0.70936394  0.34626085    -0.01200
Br1370     Br  0.61944034  0.75294858  0.38052048    -0.01200
C1371       C  0.72948549  0.91677788  0.71755502    -0.02300
C1372       C  0.69718760  0.91557760  0.72165034     0.07400
C1373       C  0.68189218  0.93572343  0.75211755    -0.02400
C1374       C  0.69753877  0.96088504  0.77286423    -0.02400
C1375       C  0.73120500  0.96523493  0.76614173     0.07500
C1376       C  0.74646735  0.94015618  0.74030678    -0.02600
Br1377     Br  0.79096333  0.93696435  0.73068415    -0.01200
Br1378     Br  0.75016421  0.88443441  0.68203131    -0.01200
Br1379     Br  0.66972804  0.98292617  0.81557462    -0.01200
Br1380     Br  0.63938419  0.92476546  0.76984265    -0.01200
C1381       C  0.54119595  0.93339069  0.67247427    -0.02300
C1382       C  0.57240656  0.94143883  0.67124405     0.07400
C1383       C  0.58225189  0.96755013  0.69393072    -0.02400
C1384       C  0.56290156  0.98080529  0.72790229    -0.02400
C1385       C  0.52942330  0.97561746  0.72844715     0.07500
C1386       C  0.51947938  0.95073330  0.69893524    -0.02600
Br1387     Br  0.97737383  0.93929840  0.68865207    -0.01200
Br1388     Br  0.52883615  0.89860514  0.63524247    -0.01200
Br1389     Br  0.58800845  0.99504532  0.77732192    -0.01200
Br1390     Br  0.62429023  0.98206496  0.68157017    -0.01200
C1391       C  0.54826129  0.75172277  0.73188190    -0.02300
C1392       C  0.52293875  0.76496015  0.75967215     0.07400
C1393       C  0.52452144  0.79885853  0.76506910    -0.02400
C1394       C  0.54693827  0.81711162  0.74037308    -0.02400
C1395       C  0.57073453  0.80319319  0.71330938     0.07500
C1396       C  0.57153528  0.77055218  0.70995403    -0.02600
Br1397     Br  0.60390749  0.75175586  0.67172489    -0.01200
Br1398     Br  0.55153152  0.70761142  0.71812652    -0.01200
Br1399     Br  0.54691247  0.86240538  0.74740600    -0.01200
Br1400     Br  0.50305725  0.82338631  0.81223466    -0.01200
loop_ 
_geom_bond_atom_site_label_1 
_geom_bond_atom_site_label_2 
_geom_bond_distance 
_geom_bond_site_symmetry_2 
_ccdc_geom_bond_type 
In1           O3   2.233       .  S
In1           O4   2.312       .  S
In1          O12   2.314       .  S
In1           O6   2.177       .  S
In1           O8   2.248       .  S
In1           O9   2.301       .  S
In1          O10   2.184       .  S
In1          O13   2.240       .  S
C2            O8   1.259       .  A
C2           O10   1.258       .  A
C2          C332   1.448       .  S
O3           C11   1.253       .  A
O4           C11   1.270       .  A
C5           O12   1.266       .  A
C5            O6   1.249       .  A
C5           C18   1.464       .  S
C7            O9   1.267       .  A
C7           O13   1.255       .  A
C7          C322   1.491       .  S
C11         C345   1.499       .  S
In14         O16   2.239       .  S
In14         O17   2.282       .  S
In14         O25   2.294       .  S
In14         O19   2.169       .  S
In14         O21   2.209       .  S
In14         O22   2.289       .  S
In14         O23   2.193       .  S
In14         O26   2.221       .  S
C15          O21   1.264       .  A
C15          O23   1.258       .  A
C15         C302   1.467       .  S
O16          C24   1.258       .  A
O17          C24   1.275       .  A
C18          O25   1.269       .  A
C18          O19   1.258       .  A
C20          O22   1.275       .  A
C20          O26   1.258       .  A
C20         C312   1.493       .  S
C24         C295   1.499       .  S
In27         O29   2.252       .  S
In27         O30   2.301       .  S
In27         O38   2.308       .  S
In27         O32   2.155       .  S
In27         O34   2.217       .  S
In27         O35   2.298       .  S
In27         O36   2.200       .  S
In27         O39   2.259       .  S
C28          O34   1.259       .  A
C28          O36   1.264       .  A
C28         C272   1.467       .  S
O29          C37   1.252       .  A
O30          C37   1.270       .  A
C31          O38   1.266       .  A
C31          O32   1.251       .  A
C31          C44   1.455       .  S
C33          O35   1.271       .  A
C33          O39   1.257       .  A
C33         C282   1.508       .  S
C37         C262   1.508       .  S
In40         O42   2.235       .  S
In40         O43   2.287       .  S
In40         O51   2.307       .  S
In40         O45   2.152       .  S
In40         O47   2.234       .  S
In40         O48   2.295       .  S
In40         O49   2.188       .  S
In40         O52   2.247       .  S
C41          O47   1.259       .  A
C41          O49   1.263       .  A
C41         C242   1.450       .  S
O42          C50   1.253       .  A
O43          C50   1.267       .  A
C44          O51   1.266       .  A
C44          O45   1.251       .  A
C46          O48   1.268       .  A
C46          O52   1.256       .  A
C46         C232   1.504       .  S
C50         C252   1.482       .  S
C53         C222   1.623       .  S
C53         C292   1.612       .  S
C53         C562   1.626       .  S
C53         C605   1.618       .  S
In54         O56   2.218       .  S
In54         O57   2.246       .  S
In54         O65   2.262       .  S
In54         O59   2.212       .  S
In54         O61   2.244       .  S
In54         O62   2.266       .  S
In54         O63   2.214       .  S
In54         O66   2.250       .  S
C55          O61   1.265       .  A
C55          O63   1.258       .  A
C55         C182   1.467       .  S
O56          C64   1.261       .  A
O57          C64   1.268       .  A
C58          O65   1.263   1_554  A
C58          O59   1.262   1_554  A
C58          C71   1.462       .  S
C60          O62   1.266       .  A
C60          O66   1.259       .  A
C60         C202   1.498       .  S
C64         C192   1.483       .  S
In67         O69   2.224       .  S
In67         O70   2.295       .  S
In67         O78   2.277       .  S
In67         O72   2.204       .  S
In67         O74   2.215       .  S
In67         O75   2.299       .  S
In67         O76   2.196       .  S
In67         O79   2.251       .  S
C68          O74   1.260       .  A
C68          O76   1.262       .  A
C68         C162   1.441       .  S
O69          C77   1.254       .  A
O70          C77   1.269       .  A
C71          O78   1.267       .  A
C71          O72   1.253       .  A
C73          O75   1.268       .  A
C73          O79   1.256       .  A
C73         C172   1.505       .  S
C77         C225   1.508       .  S
In80         O82   2.234       .  S
In80         O83   2.273       .  S
In80         O91   2.270       .  S
In80         O85   2.210       .  S
In80         O87   2.236       .  S
In80         O88   2.263       .  S
In80         O89   2.201       .  S
In80         O92   2.229       .  S
C81          O87   1.265       .  A
C81          O89   1.257       .  A
C81         C155   1.475       .  S
O82          C90   1.258       .  A
O83          C90   1.268       .  A
C84          O91   1.266   1_554  A
C84          O85   1.259   1_554  A
C84          C97   1.464       .  S
C86          O88   1.271       .  A
C86          O92   1.261       .  A
C86         C142   1.488       .  S
C90         C135   1.490       .  S
In93         O95   2.255       .  S
In93         O96   2.249       .  S
In93        O104   2.269       .  S
In93         O98   2.205       .  S
In93        O100   2.215       .  S
In93        O101   2.305       .  S
In93        O102   2.222       .  S
In93        O105   2.220       .  S
C94         O100   1.258       .  A
C94         O102   1.254       .  A
C94         C125   1.457       .  S
O95         C103   1.259       .  A
O96         C103   1.259       .  A
C97         O104   1.267       .  A
C97          O98   1.260       .  A
C99         O101   1.265       .  A
C99         O105   1.253       .  A
C99         C112   1.490       .  S
C103        C215   1.493       .  S
C106        C305   1.584       .  S
C106        C472   1.598       .  S
C106        C865   1.576   1_455  S
C106       C1295   1.586   1_455  S
C107        C115   1.609       .  S
C107        C315   1.614       .  S
C107        C875   1.628   1_455  S
C107        C935   1.624   1_455  S
C108        C205   1.620       .  S
C108        C325   1.629       .  S
C108        C495   1.614       .  S
C108        C635   1.630       .  S
C109        C132   1.607   1_655  S
C109        C342   1.621   1_655  S
C109        C895   1.610       .  S
C109        C965   1.625       .  S
C110        C335   1.596       .  S
C110        C502   1.595       .  S
C110        C885   1.594   1_455  S
C110       C1325   1.585   1_455  S
C111        C112   1.397       .  A
C111        C116   1.424       .  A
C111       Br118   1.934       .  S
C112        C113   1.399       .  A
C113        C114   1.399       .  A
C113       Br120   1.930       .  S
C114        C115   1.445       .  A
C114       Br819   1.941       .  S
C115        C116   1.461       .  A
C116       Br117   1.932       .  S
Br119       C814   1.942       .  S
C121        C122   1.452       .  A
C121        C126   1.402       .  A
C121       Br128   1.939       .  S
C122        C456   1.596   1_545  S
C122        C123   1.465       .  A
C123        C124   1.412       .  A
C123       Br480   1.943   1_545  S
C124        C125   1.388       .  A
C124       Br129   1.950       .  S
C125        C126   1.395       .  A
C126       Br127   1.950       .  S
Br130       C473   1.942   1_655  S
C131        C132   1.445       .  A
C131        C136   1.405       .  A
C131       Br138   1.946       .  S
C132        C133   1.459       .  A
C133        C134   1.419       .  A
C133       Br140   1.933       .  S
C134        C135   1.398       .  A
C134       Br139   1.936       .  S
C135        C136   1.406       .  A
C136       Br137   1.932       .  S
C141        C142   1.401       .  A
C141        C146   1.425       .  A
C141       Br148   1.944       .  S
C142        C143   1.397       .  A
C143        C144   1.412       .  A
C143       Br150   1.945       .  S
C144        C145   1.454       .  A
C144       Br149   1.934       .  S
C145        C458   1.614   1_545  S
C145        C146   1.462       .  A
C146       Br147   1.944   1_545  S
C151        C152   1.459       .  A
C151        C156   1.414       .  A
C151       Br858   1.949   1_445  S
C152        C460   1.603   1_545  S
C152        C153   1.454       .  A
C153        C154   1.405       .  A
C153       Br160   1.943       .  S
C154        C155   1.402       .  A
C154       Br159   1.954       .  S
C155        C156   1.399       .  A
C156       Br157   1.947       .  S
Br158       C851   1.948   1_565  S
C161        C162   1.382       .  A
C161        C166   1.383       .  A
C161       Br168   1.933       .  S
C162        C163   1.394       .  A
C163        C164   1.410       .  A
C163       Br170   1.932       .  S
C164        C165   1.449       .  A
C164       Br519   1.931       .  S
C165        C806   1.576       .  S
C165        C166   1.445       .  A
C166       Br867   1.941       .  S
Br167       C866   1.940       .  S
Br169       C514   1.933   1_545  S
C171        C172   1.399       .  A
C171        C176   1.419       .  A
C171       Br178   1.941       .  S
C172        C173   1.404       .  A
C173        C174   1.429       .  A
C173       Br180   1.945       .  S
C174        C175   1.463       .  A
C174       Br879   1.946       .  S
C175        C807   1.627       .  S
C175        C176   1.457       .  A
C176       Br177   1.937       .  S
Br179       C874   1.945   1_455  S
C181        C182   1.392       .  A
C181        C186   1.412       .  A
C181       Br188   1.935       .  S
C182        C183   1.390       .  A
C183        C184   1.409       .  A
C183       Br190   1.947       .  S
C184        C185   1.463       .  A
C184       Br189   1.951       .  S
C185        C810   1.595       .  S
C185        C186   1.450       .  A
C186       Br887   1.933       .  S
Br187       C886   1.934       .  S
C191        C192   1.397       .  A
C191        C196   1.409       .  A
C191       Br198   1.944       .  S
C192        C193   1.400       .  A
C193        C194   1.422       .  A
C193       Br200   1.945       .  S
C194        C195   1.462       .  A
C194       Br899   1.942       .  S
C195        C809   1.610       .  S
C195        C196   1.453       .  A
C196       Br197   1.934       .  S
Br199       C894   1.943       .  S
C201        C202   1.404       .  A
C201        C206   1.408       .  A
C201       Br208   1.939       .  S
C202        C203   1.403       .  A
C203        C204   1.424       .  A
C203       Br210   1.940       .  S
C204        C205   1.459       .  A
C204       Br209   1.934       .  S
C205        C206   1.451       .  A
C206       Br557   1.949       .  S
Br207       C556   1.948       .  S
C211        C212   1.454       .  A
C211        C216   1.406       .  A
C211       Br218   1.939       .  S
C212        C403   1.622   1_545  S
C212        C213   1.451       .  A
C213        C214   1.424       .  A
C213       Br570   1.927   1_545  S
C214        C215   1.412       .  A
C214       Br219   1.945       .  S
C215        C216   1.396       .  A
C216       Br217   1.938       .  S
Br220       C563   1.923       .  S
C221        C222   1.461       .  A
C221        C226   1.416       .  A
C221       Br228   1.952       .  S
C222        C223   1.444       .  A
C223        C224   1.419       .  A
C223       Br230   1.930       .  S
C224        C225   1.412       .  A
C224       Br229   1.939       .  S
C225        C226   1.405       .  A
C226       Br227   1.939       .  S
C231        C232   1.406       .  A
C231        C236   1.428       .  A
C231       Br238   1.944       .  S
C232        C233   1.399       .  A
C233        C234   1.419       .  A
C233       Br240   1.944       .  S
C234        C235   1.457       .  A
C234       Br239   1.935       .  S
C235        C807   1.624       .  S
C235        C236   1.460       .  A
C236       Br937   1.945       .  S
Br237       C936   1.945   1_455  S
C241        C242   1.392       .  A
C241        C246   1.410       .  A
C241       Br248   1.938       .  S
C242        C243   1.382       .  A
C243        C244   1.391       .  A
C243       Br250   1.936       .  S
C244        C245   1.447       .  A
C244       Br249   1.936       .  S
C245       C1156   1.584   1_545  S
C245        C246   1.455       .  A
C246       Br247   1.932   1_545  S
C251        C252   1.392       .  A
C251        C256   1.417       .  A
C251       Br258   1.938       .  S
C252        C253   1.401       .  A
C253        C254   1.415       .  A
C253       Br260   1.932       .  S
C254        C255   1.450       .  A
C254       Br609   1.939   1_545  S
C255        C403   1.605   1_545  S
C255        C256   1.457       .  A
C256       Br257   1.927       .  S
Br259       C604   1.936       .  S
C261        C262   1.401       .  A
C261        C266   1.417       .  A
C261       Br268   1.943       .  S
C262        C263   1.412       .  A
C263        C264   1.427       .  A
C263       Br270   1.942       .  S
C264        C265   1.457       .  A
C264       Br269   1.948       .  S
C265        C809   1.626       .  S
C265        C266   1.458       .  A
C266       Br267   1.939       .  S
C271        C272   1.404       .  A
C271        C276   1.414       .  A
C271       Br278   1.942       .  S
C272        C273   1.390       .  A
C273        C274   1.389       .  A
C273       Br280   1.941       .  S
C274        C275   1.446       .  A
C274       Br279   1.926       .  S
C275       C1160   1.587   1_545  S
C275        C276   1.458       .  A
C276       Br977   1.945       .  S
Br277       C976   1.944   1_455  S
C281        C282   1.398       .  A
C281        C286   1.421       .  A
C281       Br288   1.947       .  S
C282        C283   1.406       .  A
C283        C284   1.432       .  A
C283       Br290   1.941       .  S
C284        C285   1.459       .  A
C284       Br289   1.941   1_545  S
C285        C458   1.634   1_545  S
C285        C286   1.463       .  A
C286       Br287   1.936       .  S
C291        C292   1.454       .  A
C291        C296   1.419       .  A
C291       Br298   1.926       .  S
C292        C293   1.454       .  A
C293        C294   1.424       .  A
C293       Br300   1.946       .  S
C294        C295   1.409       .  A
C294       Br299   1.938       .  S
C295        C296   1.394       .  A
C296       Br297   1.937       .  S
C301        C302   1.405       .  A
C301        C306   1.404       .  A
C301       Br308   1.952       .  S
C302        C303   1.399       .  A
C303        C304   1.399       .  A
C303       Br310   1.944       .  S
C304        C305   1.451       .  A
C304       Br659   1.950       .  S
C305        C306   1.452       .  A
C306       Br307   1.942       .  S
Br309       C654   1.950       .  S
C311        C312   1.403       .  A
C311        C316   1.403       .  A
C311       Br318   1.926       .  S
C312        C313   1.396       .  A
C313        C314   1.424       .  A
C313       Br320   1.934       .  S
C314        C315   1.462       .  A
C314       Br319   1.928       .  S
C315        C316   1.442       .  A
C316      Br1017   1.936       .  S
Br317      C1016   1.936       .  S
C321        C322   1.391       .  A
C321        C326   1.424       .  A
C321       Br328   1.934       .  S
C322        C323   1.394       .  A
C323        C324   1.421       .  A
C323       Br330   1.948       .  S
C324        C325   1.470       .  A
C324       Br329   1.954       .  S
C325        C326   1.459       .  A
C326       Br327   1.931       .  S
C331        C332   1.386       .  A
C331        C336   1.404       .  A
C331       Br338   1.943       .  S
C332        C333   1.382       .  A
C333        C334   1.403       .  A
C333       Br340   1.941       .  S
C334        C335   1.462       .  A
C334       Br339   1.947       .  S
C335        C336   1.455       .  A
C336      Br1037   1.931   1_455  S
Br337      C1036   1.931       .  S
C341        C342   1.456       .  A
C341        C346   1.421       .  A
C341       Br348   1.932       .  S
C342        C343   1.461       .  A
C343        C344   1.422       .  A
C343       Br350   1.948       .  S
C344        C345   1.405       .  A
C344       Br349   1.945       .  S
C345        C346   1.395       .  A
C346       Br347   1.938       .  S
In351       O353   2.232       .  S
In351       O354   2.321       .  S
In351       O362   2.321       .  S
In351       O356   2.184       .  S
In351       O358   2.258       .  S
In351       O359   2.306       .  S
In351       O360   2.186       .  S
In351       O363   2.258       .  S
C352        O358   1.259       .  A
C352        O360   1.257       .  A
C352        C682   1.452       .  S
O353        C361   1.253       .  A
O354        C361   1.271       .  A
C355        O362   1.267       .  A
C355        O356   1.250       .  A
C355        C368   1.468       .  S
C357        O359   1.267       .  A
C357        O363   1.257       .  A
C357        C672   1.499       .  S
C361        C695   1.506       .  S
In364       O366   2.235       .  S
In364       O367   2.284       .  S
In364       O375   2.304       .  S
In364       O369   2.176       .  S
In364       O371   2.227       .  S
In364       O372   2.289       .  S
In364       O373   2.194       .  S
In364       O376   2.225       .  S
C365        O371   1.265       .  A
C365        O373   1.257       .  A
C365        C652   1.472       .  S
O366        C374   1.258       .  A
O367        C374   1.273       .  A
C368        O375   1.269       .  A
C368        O369   1.258       .  A
C370        O372   1.274       .  A
C370        O376   1.258       .  A
C370        C662   1.495       .  S
C374        C645   1.498       .  S
In377       O379   2.235       .  S
In377       O380   2.305       .  S
In377       O388   2.311       .  S
In377       O382   2.154       .  S
In377       O384   2.207       .  S
In377       O385   2.290       .  S
In377       O386   2.201       .  S
In377       O389   2.254       .  S
C378        O384   1.258       .  A
C378        O386   1.263       .  A
C378        C622   1.463       .  S
O379        C387   1.250       .  A
O380        C387   1.270       .  A
C381        O388   1.267       .  A
C381        O382   1.251       .  A
C381        C394   1.457       .  S
C383        O385   1.270       .  A
C383        O389   1.258       .  A
C383        C632   1.506       .  S
C387        C612   1.504       .  S
In390       O392   2.255       .  S
In390       O393   2.291       .  S
In390       O401   2.306       .  S
In390       O395   2.156       .  S
In390       O397   2.236       .  S
In390       O398   2.302       .  S
In390       O399   2.190       .  S
In390       O402   2.242       .  S
C391        O397   1.259       .  A
C391        O399   1.261       .  A
C391        C592   1.452       .  S
O392        C400   1.255       .  A
O393        C400   1.267       .  A
C394        O401   1.267       .  A
C394        O395   1.252       .  A
C396        O398   1.271       .  A
C396        O402   1.255       .  A
C396        C582   1.502       .  S
C400        C602   1.492       .  S
C403        C572   1.609       .  S
C403        C642   1.612       .  S
In404       O406   2.218       .  S
In404       O407   2.250       .  S
In404       O415   2.262       .  S
In404       O409   2.201       .  S
In404       O411   2.246       .  S
In404       O412   2.273       .  S
In404       O413   2.216       .  S
In404       O416   2.241       .  S
C405        O411   1.265       .  A
C405        O413   1.258       .  A
C405        C532   1.471       .  S
O406        C414   1.259       .  A
O407        C414   1.269       .  A
C408        O415   1.264   1_554  A
C408        O409   1.261   1_554  A
C408        C421   1.459       .  S
C410        O412   1.267       .  A
C410        O416   1.259       .  A
C410        C552   1.497       .  S
C414        C542   1.480       .  S
In417       O419   2.209       .  S
In417       O420   2.287       .  S
In417       O428   2.273       .  S
In417       O422   2.197       .  S
In417       O424   2.220       .  S
In417       O425   2.288       .  S
In417       O426   2.196       .  S
In417       O429   2.249       .  S
C418        O424   1.260       .  A
C418        O426   1.261       .  A
C418        C512   1.444       .  S
O419        C427   1.253       .  A
O420        C427   1.269       .  A
C421        O428   1.266       .  A
C421        O422   1.254       .  A
C423        O425   1.267       .  A
C423        O429   1.257       .  A
C423        C522   1.503       .  S
C427        C575   1.497       .  S
In430       O432   2.237       .  S
In430       O433   2.272       .  S
In430       O441   2.266       .  S
In430       O435   2.199       .  S
In430       O437   2.235       .  S
In430       O438   2.267       .  S
In430       O439   2.185       .  S
In430       O442   2.230       .  S
C431        O437   1.264       .  A
C431        O439   1.256       .  A
C431        C505   1.463       .  S
O432        C440   1.257       .  A
O433        C440   1.269       .  A
C434        O441   1.266   1_554  A
C434        O435   1.258   1_554  A
C434        C447   1.460       .  S
C436        O438   1.271       .  A
C436        O442   1.261       .  A
C436        C492   1.491       .  S
C440        C485   1.491       .  S
In443       O445   2.257       .  S
In443       O446   2.257       .  S
In443       O454   2.268       .  S
In443       O448   2.197       .  S
In443       O450   2.222       .  S
In443       O451   2.307       .  S
In443       O452   2.216       .  S
In443       O455   2.221       .  S
C444        O450   1.259       .  A
C444        O452   1.255       .  A
C444        C475   1.457       .  S
O445        C453   1.258       .  A
O446        C453   1.260       .  A
C447        O454   1.267       .  A
C447        O448   1.259       .  A
C449        O451   1.266       .  A
C449        O455   1.253       .  A
C449        C462   1.493       .  S
C453        C565   1.495       .  S
C456       C1215   1.581   1_455  S
C456        C945   1.583   1_465  S
C456        C655   1.588       .  S
C457        C465   1.611       .  S
C457       C1225   1.626   1_455  S
C457       C1285   1.625   1_455  S
C457        C665   1.613       .  S
C458        C555   1.619       .  S
C458        C675   1.636       .  S
C459        C482   1.610   1_655  S
C459       C1245   1.610       .  S
C459       C1315   1.628       .  S
C459        C692   1.625   1_655  S
C460       C1235   1.600   1_455  S
C460        C975   1.586   1_465  S
C460        C685   1.599       .  S
C461        C462   1.397       .  A
C461        C466   1.423       .  A
C461       Br468   1.934       .  S
C462        C463   1.400       .  A
C463        C464   1.401       .  A
C463       Br470   1.931       .  S
C464        C465   1.445       .  A
C464      Br1169   1.940       .  S
C465        C466   1.461       .  A
C466       Br467   1.930       .  S
Br469      C1164   1.939       .  S
C471        C472   1.452       .  A
C471        C476   1.401       .  A
C471       Br478   1.936       .  S
C472        C473   1.467       .  A
C473        C474   1.414       .  A
C474        C475   1.388       .  A
C474       Br479   1.951       .  S
C475        C476   1.393       .  A
C476       Br477   1.951       .  S
C481        C482   1.445       .  A
C481        C486   1.406       .  A
C481       Br488   1.945       .  S
C482        C483   1.459       .  A
C483        C484   1.419       .  A
C483       Br490   1.930       .  S
C484        C485   1.397       .  A
C484       Br489   1.938       .  S
C485        C486   1.405       .  A
C486       Br487   1.933       .  S
C491        C492   1.402       .  A
C491        C496   1.425       .  A
C491       Br498   1.944       .  S
C492        C493   1.398       .  A
C493        C494   1.414       .  A
C493       Br500   1.945       .  S
C494        C495   1.455       .  A
C494       Br499   1.935       .  S
C495        C496   1.459       .  A
C496       Br497   1.938       .  S
C501        C502   1.459       .  A
C501        C506   1.408       .  A
C501      Br1208   1.951   1_455  S
C502        C503   1.452       .  A
C503        C504   1.402       .  A
C503       Br510   1.942       .  S
C504        C505   1.400       .  A
C504       Br509   1.953       .  S
C505        C506   1.396       .  A
C506       Br507   1.944       .  S
Br508      C1201   1.951       .  S
C511        C512   1.382       .  A
C511        C516   1.388       .  A
C511       Br518   1.936       .  S
C512        C513   1.393       .  A
C513        C514   1.410       .  A
C513       Br520   1.934       .  S
C514        C515   1.452       .  A
C515       C1156   1.580       .  S
C515        C516   1.447       .  A
C516      Br1217   1.935       .  S
Br517      C1216   1.935   1_455  S
C521        C522   1.400       .  A
C521        C526   1.417       .  A
C521       Br528   1.942       .  S
C522        C523   1.404       .  A
C523        C524   1.429       .  A
C523       Br530   1.946       .  S
C524        C525   1.463       .  A
C524      Br1229   1.944       .  S
C525       C1157   1.625       .  S
C525        C526   1.455       .  A
C526       Br527   1.937       .  S
Br529      C1224   1.944   1_455  S
C531        C532   1.392       .  A
C531        C536   1.413       .  A
C531       Br538   1.936       .  S
C532        C533   1.390       .  A
C533        C534   1.411       .  A
C533       Br540   1.949       .  S
C534        C535   1.466       .  A
C534       Br539   1.952       .  S
C535       C1160   1.601       .  S
C535        C536   1.449       .  A
C536      Br1237   1.931       .  S
Br537      C1236   1.931   1_455  S
C541        C542   1.396       .  A
C541        C546   1.409       .  A
C541       Br548   1.947       .  S
C542        C543   1.398       .  A
C543        C544   1.423       .  A
C543       Br550   1.944       .  S
C544        C545   1.462       .  A
C544      Br1249   1.943       .  S
C545       C1159   1.611       .  S
C545        C546   1.454       .  A
C546       Br547   1.933       .  S
Br549      C1244   1.943       .  S
C551        C552   1.405       .  A
C551        C556   1.411       .  A
C551       Br558   1.941       .  S
C552        C553   1.401       .  A
C553        C554   1.421       .  A
C553       Br560   1.939       .  S
C554        C555   1.458       .  A
C554       Br559   1.933       .  S
C555        C556   1.454       .  A
C561        C562   1.460       .  A
C561        C566   1.415       .  A
C561       Br568   1.937       .  S
C562        C563   1.452       .  A
C563        C564   1.423       .  A
C564        C565   1.409       .  A
C564       Br569   1.946       .  S
C565        C566   1.395       .  A
C566       Br567   1.942       .  S
C571        C572   1.451       .  A
C571        C576   1.405       .  A
C571       Br578   1.948       .  S
C572        C573   1.443       .  A
C573        C574   1.418       .  A
C573       Br580   1.928   1_565  S
C574        C575   1.413       .  A
C574       Br579   1.939       .  S
C575        C576   1.403       .  A
C576       Br577   1.933       .  S
C581        C582   1.404       .  A
C581        C586   1.428       .  A
C581       Br588   1.944       .  S
C582        C583   1.398       .  A
C583        C584   1.420       .  A
C583       Br590   1.943       .  S
C584        C585   1.459       .  A
C584       Br589   1.937       .  S
C585       C1157   1.626       .  S
C585        C586   1.461       .  A
C586      Br1287   1.944       .  S
Br587      C1286   1.945   1_455  S
C591        C592   1.390       .  A
C591        C596   1.410       .  A
C591       Br598   1.939       .  S
C592        C593   1.382       .  A
C593        C594   1.392       .  A
C593       Br600   1.933       .  S
C594        C595   1.447       .  A
C594       Br599   1.937       .  S
C595        C806   1.587       .  S
C595        C596   1.456       .  A
C596       Br597   1.928       .  S
C601        C602   1.395       .  A
C601        C606   1.422       .  A
C601       Br608   1.939       .  S
C602        C603   1.401       .  A
C603        C604   1.420       .  A
C603       Br610   1.931       .  S
C604        C605   1.452       .  A
C605        C606   1.459       .  A
C606       Br607   1.926       .  S
C611        C612   1.399       .  A
C611        C616   1.417       .  A
C611       Br618   1.943       .  S
C612        C613   1.410       .  A
C613        C614   1.426       .  A
C613       Br620   1.944       .  S
C614        C615   1.458       .  A
C614       Br619   1.947       .  S
C615       C1159   1.627       .  S
C615        C616   1.459       .  A
C616       Br617   1.938       .  S
C621        C622   1.403       .  A
C621        C626   1.411       .  A
C621       Br628   1.942       .  S
C622        C623   1.390       .  A
C623        C624   1.392       .  A
C623       Br630   1.946       .  S
C624        C625   1.450       .  A
C624       Br629   1.926       .  S
C625        C810   1.587       .  S
C625        C626   1.456       .  A
C626      Br1327   1.946       .  S
Br627      C1326   1.947   1_455  S
C631        C632   1.400       .  A
C631        C636   1.419       .  A
C631       Br638   1.947       .  S
C632        C633   1.408       .  A
C633        C634   1.430       .  A
C633       Br640   1.943       .  S
C634        C635   1.459       .  A
C634       Br639   1.940       .  S
C635        C636   1.461       .  A
C636       Br637   1.940       .  S
C641        C642   1.457       .  A
C641        C646   1.419       .  A
C641       Br648   1.927       .  S
C642        C643   1.450       .  A
C643        C644   1.422       .  A
C643       Br650   1.941   1_565  S
C644        C645   1.408       .  A
C644       Br649   1.935       .  S
C645        C646   1.393       .  A
C646       Br647   1.938       .  S
C651        C652   1.406       .  A
C651        C656   1.405       .  A
C651       Br658   1.951       .  S
C652        C653   1.399       .  A
C653        C654   1.401       .  A
C653       Br660   1.943       .  S
C654        C655   1.452       .  A
C655        C656   1.451       .  A
C656       Br657   1.942       .  S
C661        C662   1.402       .  A
C661        C666   1.402       .  A
C661       Br668   1.923       .  S
C662        C663   1.396       .  A
C663        C664   1.425       .  A
C663       Br670   1.932       .  S
C664        C665   1.460       .  A
C664       Br669   1.927       .  S
C665        C666   1.441       .  A
C666      Br1367   1.935       .  S
Br667      C1366   1.937       .  S
C671        C672   1.393       .  A
C671        C676   1.427       .  A
C671       Br678   1.934       .  S
C672        C673   1.395       .  A
C673        C674   1.425       .  A
C673       Br680   1.946       .  S
C674        C675   1.470       .  A
C674       Br679   1.952       .  S
C675        C676   1.460       .  A
C676       Br677   1.932       .  S
C681        C682   1.388       .  A
C681        C686   1.408       .  A
C681       Br688   1.942       .  S
C682        C683   1.382       .  A
C683        C684   1.402       .  A
C683       Br690   1.940       .  S
C684        C685   1.460       .  A
C684       Br689   1.947       .  S
C685        C686   1.455       .  A
C686      Br1387   1.931   1_455  S
Br687      C1386   1.931       .  S
C691        C692   1.456       .  A
C691        C696   1.424       .  A
C691       Br698   1.934       .  S
C692        C693   1.461       .  A
C693        C694   1.422       .  A
C693       Br700   1.951       .  S
C694        C695   1.408       .  A
C694       Br699   1.948       .  S
C695        C696   1.399       .  A
C696       Br697   1.937       .  S
In701       O703   2.236       .  S
In701       O704   2.310       .  S
In701       O712   2.314       .  S
In701       O706   2.176       .  S
In701       O708   2.248       .  S
In701       O709   2.297       .  S
In701       O710   2.183       .  S
In701       O713   2.242       .  S
C702        O708   1.259       .  A
C702        O710   1.258       .  A
C702       C1032   1.448       .  S
O703        C711   1.253       .  A
O704        C711   1.269       .  A
C705        O712   1.266       .  A
C705        O706   1.249       .  A
C705        C718   1.464       .  S
C707        O709   1.267       .  A
C707        O713   1.256       .  A
C707       C1022   1.490       .  S
C711       C1045   1.499       .  S
In714       O716   2.240       .  S
In714       O717   2.284       .  S
In714       O725   2.295       .  S
In714       O719   2.166       .  S
In714       O721   2.205       .  S
In714       O722   2.292       .  S
In714       O723   2.191       .  S
In714       O726   2.221       .  S
C715        O721   1.264       .  A
C715        O723   1.258       .  A
C715       C1002   1.466       .  S
O716        C724   1.258       .  A
O717        C724   1.275       .  A
C718        O725   1.269       .  A
C718        O719   1.258       .  A
C720        O722   1.275       .  A
C720        O726   1.258       .  A
C720       C1012   1.494       .  S
C724        C995   1.500       .  S
In727       O729   2.248       .  S
In727       O730   2.298       .  S
In727       O738   2.306       .  S
In727       O732   2.155       .  S
In727       O734   2.217       .  S
In727       O735   2.293       .  S
In727       O736   2.199       .  S
In727       O739   2.256       .  S
C728        O734   1.259       .  A
C728        O736   1.264       .  A
C728        C972   1.466       .  S
O729        C737   1.252       .  A
O730        C737   1.269       .  A
C731        O738   1.265       .  A
C731        O732   1.251       .  A
C731        C744   1.454       .  S
C733        O735   1.270       .  A
C733        O739   1.257       .  A
C733        C982   1.505       .  S
C737        C962   1.506       .  S
In740       O742   2.238       .  S
In740       O743   2.286       .  S
In740       O751   2.305       .  S
In740       O745   2.152       .  S
In740       O747   2.235       .  S
In740       O748   2.296       .  S
In740       O749   2.187       .  S
In740       O752   2.245       .  S
C741        O747   1.259       .  A
C741        O749   1.262       .  A
C741        C942   1.450       .  S
O742        C750   1.253       .  A
O743        C750   1.267       .  A
C744        O751   1.266       .  A
C744        O745   1.251       .  A
C746        O748   1.269       .  A
C746        O752   1.256       .  A
C746        C932   1.503       .  S
C750        C952   1.483       .  S
C753       C1262   1.627       .  S
C753        C922   1.625       .  S
C753       C1305   1.621       .  S
C753        C992   1.609       .  S
In754       O756   2.214       .  S
In754       O757   2.243       .  S
In754       O765   2.257       .  S
In754       O759   2.213       .  S
In754       O761   2.241       .  S
In754       O762   2.260       .  S
In754       O763   2.215       .  S
In754       O766   2.249       .  S
C755        O761   1.266       .  A
C755        O763   1.258       .  A
C755        C882   1.465       .  S
O756        C764   1.261       .  A
O757        C764   1.268       .  A
C758        O765   1.262   1_554  A
C758        O759   1.262   1_554  A
C758        C771   1.462       .  S
C760        O762   1.265       .  A
C760        O766   1.259       .  A
C760        C902   1.496       .  S
C764        C892   1.481       .  S
In767       O769   2.226       .  S
In767       O770   2.292       .  S
In767       O778   2.274       .  S
In767       O772   2.206       .  S
In767       O774   2.216       .  S
In767       O775   2.300       .  S
In767       O776   2.193       .  S
In767       O779   2.254       .  S
C768        O774   1.260       .  A
C768        O776   1.262       .  A
C768        C862   1.441       .  S
O769        C777   1.254       .  A
O770        C777   1.269       .  A
C771        O778   1.266       .  A
C771        O772   1.254       .  A
C773        O775   1.268       .  A
C773        O779   1.257       .  A
C773        C872   1.507       .  S
C777        C925   1.507       .  S
In780       O782   2.235       .  S
In780       O783   2.271       .  S
In780       O791   2.271       .  S
In780       O785   2.209       .  S
In780       O787   2.236       .  S
In780       O788   2.262       .  S
In780       O789   2.201       .  S
In780       O792   2.226       .  S
C781        O787   1.265       .  A
C781        O789   1.257       .  A
C781        C855   1.475       .  S
O782        C790   1.258       .  A
O783        C790   1.268       .  A
C784        O791   1.265   1_554  A
C784        O785   1.259   1_554  A
C784        C797   1.463       .  S
C786        O788   1.271       .  A
C786        O792   1.261       .  A
C786        C842   1.487       .  S
C790        C835   1.490       .  S
In793       O795   2.255       .  S
In793       O796   2.246       .  S
In793       O804   2.268       .  S
In793       O798   2.201       .  S
In793       O800   2.219       .  S
In793       O801   2.306       .  S
In793       O802   2.222       .  S
In793       O805   2.223       .  S
C794        O800   1.258       .  A
C794        O802   1.253       .  A
C794        C825   1.458       .  S
O795        C803   1.259       .  A
O796        C803   1.259       .  A
C797        O804   1.268       .  A
C797        O798   1.260       .  A
C799        O801   1.265       .  A
C799        O805   1.253       .  A
C799        C812   1.491       .  S
C803        C915   1.492       .  S
C806       C1172   1.596       .  S
C806       C1005   1.584       .  S
C807        C815   1.609       .  S
C807       C1015   1.614       .  S
C808       C1195   1.614       .  S
C808        C905   1.620       .  S
C808       C1335   1.630       .  S
C808       C1025   1.628       .  S
C809        C832   1.608       .  S
C809       C1042   1.621       .  S
C810       C1202   1.594       .  S
C810       C1035   1.597       .  S
C811        C812   1.397       .  A
C811        C816   1.424       .  A
C811       Br818   1.934       .  S
C812        C813   1.399       .  A
C813        C814   1.400       .  A
C813       Br820   1.929       .  S
C814        C815   1.445       .  A
C815        C816   1.461       .  A
C816       Br817   1.933       .  S
C821        C822   1.451       .  A
C821        C826   1.402       .  A
C821       Br828   1.939       .  S
C822       C1156   1.596   1_545  S
C822        C823   1.465       .  A
C823        C824   1.412       .  A
C823      Br1180   1.943   1_545  S
C824        C825   1.389       .  A
C824       Br829   1.951       .  S
C825        C826   1.395       .  A
C826       Br827   1.950       .  S
Br830      C1173   1.943       .  S
C831        C832   1.445       .  A
C831        C836   1.406       .  A
C831       Br838   1.947       .  S
C832        C833   1.459       .  A
C833        C834   1.419       .  A
C833       Br840   1.933       .  S
C834        C835   1.398       .  A
C834       Br839   1.937       .  S
C835        C836   1.406       .  A
C836       Br837   1.933       .  S
C841        C842   1.400       .  A
C841        C846   1.424       .  A
C841       Br848   1.944       .  S
C842        C843   1.396       .  A
C843        C844   1.412       .  A
C843       Br850   1.945       .  S
C844        C845   1.454       .  A
C844       Br849   1.934       .  S
C845       C1158   1.613   1_545  S
C845        C846   1.462       .  A
C846       Br847   1.944   1_545  S
C851        C852   1.459       .  A
C851        C856   1.414       .  A
C852       C1160   1.604   1_545  S
C852        C853   1.455       .  A
C853        C854   1.405       .  A
C853       Br860   1.942       .  S
C854        C855   1.402       .  A
C854       Br859   1.954       .  S
C855        C856   1.399       .  A
C856       Br857   1.947       .  S
C861        C862   1.381       .  A
C861        C866   1.383       .  A
C861       Br868   1.934       .  S
C862        C863   1.394       .  A
C863        C864   1.410       .  A
C863       Br870   1.933       .  S
C864        C865   1.450       .  A
C864      Br1219   1.932       .  S
C865        C866   1.445       .  A
Br869      C1214   1.933   1_545  S
C871        C872   1.400       .  A
C871        C876   1.420       .  A
C871       Br878   1.941       .  S
C872        C873   1.404       .  A
C873        C874   1.430       .  A
C873       Br880   1.945       .  S
C874        C875   1.463       .  A
C875        C876   1.457       .  A
C876       Br877   1.937       .  S
C881        C882   1.391       .  A
C881        C886   1.411   1_655  A
C881       Br888   1.935   1_655  S
C882        C883   1.389       .  A
C883        C884   1.408       .  A
C883       Br890   1.947       .  S
C884        C885   1.463       .  A
C884       Br889   1.952       .  S
C885        C886   1.451   1_655  A
C891        C892   1.397       .  A
C891        C896   1.408       .  A
C891       Br898   1.944       .  S
C892        C893   1.399       .  A
C893        C894   1.421       .  A
C893       Br900   1.945       .  S
C894        C895   1.462       .  A
C895        C896   1.453       .  A
C896       Br897   1.934       .  S
C901        C902   1.403       .  A
C901        C906   1.408       .  A
C901       Br908   1.939       .  S
C902        C903   1.403       .  A
C903        C904   1.423       .  A
C903       Br910   1.941       .  S
C904        C905   1.460       .  A
C904       Br909   1.933       .  S
C905        C906   1.451       .  A
C906      Br1257   1.948       .  S
Br907      C1256   1.948       .  S
C911        C912   1.455       .  A
C911        C916   1.405       .  A
C911       Br918   1.940       .  S
C912       C1103   1.621   1_545  S
C912        C913   1.451       .  A
C913        C914   1.424       .  A
C913      Br1270   1.928   1_545  S
C914        C915   1.412       .  A
C914       Br919   1.945       .  S
C915        C916   1.396       .  A
C916       Br917   1.939       .  S
Br920      C1263   1.923       .  S
C921        C922   1.463       .  A
C921        C926   1.416       .  A
C921       Br928   1.952       .  S
C922        C923   1.445       .  A
C923        C924   1.420       .  A
C923       Br930   1.930       .  S
C924        C925   1.412       .  A
C924       Br929   1.939       .  S
C925        C926   1.404       .  A
C926       Br927   1.940       .  S
C931        C932   1.405       .  A
C931        C936   1.428       .  A
C931       Br938   1.944       .  S
C932        C933   1.399       .  A
C933        C934   1.419       .  A
C933       Br940   1.943       .  S
C934        C935   1.457       .  A
C934       Br939   1.936       .  S
C935        C936   1.460       .  A
C941        C942   1.392       .  A
C941        C946   1.410       .  A
C941       Br948   1.938       .  S
C942        C943   1.382       .  A
C943        C944   1.391       .  A
C943       Br950   1.935       .  S
C944        C945   1.447       .  A
C944       Br949   1.937   1_655  S
C945        C946   1.455       .  A
C946       Br947   1.932   1_545  S
C951        C952   1.392       .  A
C951        C956   1.417       .  A
C951       Br958   1.939       .  S
C952        C953   1.401       .  A
C953        C954   1.415       .  A
C953       Br960   1.931       .  S
C954        C955   1.449       .  A
C954      Br1309   1.938   1_545  S
C955       C1103   1.606   1_545  S
C955        C956   1.458       .  A
C956       Br957   1.927       .  S
Br959      C1304   1.935       .  S
C961        C962   1.401       .  A
C961        C966   1.417       .  A
C961       Br968   1.944       .  S
C962        C963   1.411       .  A
C963        C964   1.426       .  A
C963       Br970   1.942       .  S
C964        C965   1.457       .  A
C964       Br969   1.948       .  S
C965        C966   1.458       .  A
C966       Br967   1.939       .  S
C971        C972   1.404       .  A
C971        C976   1.414       .  A
C971       Br978   1.941       .  S
C972        C973   1.390       .  A
C973        C974   1.388       .  A
C973       Br980   1.940       .  S
C974        C975   1.446       .  A
C974       Br979   1.926       .  S
C975        C976   1.458       .  A
C981        C982   1.397       .  A
C981        C986   1.420       .  A
C981       Br988   1.947       .  S
C982        C983   1.406       .  A
C983        C984   1.431       .  A
C983       Br990   1.941       .  S
C984        C985   1.459       .  A
C984       Br989   1.942   1_545  S
C985       C1158   1.632   1_545  S
C985        C986   1.463       .  A
C986       Br987   1.936       .  S
C991        C992   1.454       .  A
C991        C996   1.419       .  A
C991       Br998   1.927       .  S
C992        C993   1.453       .  A
C993        C994   1.424       .  A
C993      Br1000   1.947       .  S
C994        C995   1.410       .  A
C994       Br999   1.937       .  S
C995        C996   1.395       .  A
C996       Br997   1.937       .  S
C1001      C1002   1.405       .  A
C1001      C1006   1.404       .  A
C1001     Br1008   1.954       .  S
C1002      C1003   1.399       .  A
C1003      C1004   1.398       .  A
C1003     Br1010   1.944       .  S
C1004      C1005   1.450       .  A
C1004     Br1359   1.950       .  S
C1005      C1006   1.453       .  A
C1006     Br1007   1.941       .  S
Br1009     C1354   1.950       .  S
C1011      C1012   1.403       .  A
C1011      C1016   1.403       .  A
C1011     Br1018   1.926       .  S
C1012      C1013   1.396       .  A
C1013      C1014   1.424       .  A
C1013     Br1020   1.934       .  S
C1014      C1015   1.462       .  A
C1014     Br1019   1.927       .  S
C1015      C1016   1.443       .  A
C1021      C1022   1.391       .  A
C1021      C1026   1.423       .  A
C1021     Br1028   1.935       .  S
C1022      C1023   1.394       .  A
C1023      C1024   1.421       .  A
C1023     Br1030   1.947       .  S
C1024      C1025   1.469       .  A
C1024     Br1029   1.954       .  S
C1025      C1026   1.459       .  A
C1026     Br1027   1.931       .  S
C1031      C1032   1.387       .  A
C1031      C1036   1.404       .  A
C1031     Br1038   1.943       .  S
C1032      C1033   1.381       .  A
C1033      C1034   1.402       .  A
C1033     Br1040   1.942       .  S
C1034      C1035   1.462       .  A
C1034     Br1039   1.948       .  S
C1035      C1036   1.455       .  A
C1041      C1042   1.456       .  A
C1041      C1046   1.421       .  A
C1041     Br1048   1.932       .  S
C1042      C1043   1.461       .  A
C1043      C1044   1.421       .  A
C1043     Br1050   1.950       .  S
C1044      C1045   1.405       .  A
C1044     Br1049   1.945       .  S
C1045      C1046   1.395       .  A
C1046     Br1047   1.937       .  S
In1051     O1053   2.231       .  S
In1051     O1054   2.321       .  S
In1051     O1062   2.321       .  S
In1051     O1056   2.183       .  S
In1051     O1058   2.258       .  S
In1051     O1059   2.304       .  S
In1051     O1060   2.188       .  S
In1051     O1063   2.262       .  S
C1052      O1058   1.258       .  A
C1052      O1060   1.256       .  A
C1052      C1382   1.452       .  S
O1053      C1061   1.253       .  A
O1054      C1061   1.272       .  A
C1055      O1062   1.267       .  A
C1055      O1056   1.250       .  A
C1055      C1068   1.469       .  S
C1057      O1059   1.267       .  A
C1057      O1063   1.258       .  A
C1057      C1372   1.500       .  S
C1061      C1395   1.506       .  S
In1064     O1066   2.238       .  S
In1064     O1067   2.285       .  S
In1064     O1075   2.305       .  S
In1064     O1069   2.178       .  S
In1064     O1071   2.224       .  S
In1064     O1072   2.292       .  S
In1064     O1073   2.195       .  S
In1064     O1076   2.226       .  S
C1065      O1071   1.265       .  A
C1065      O1073   1.257       .  A
C1065      C1352   1.472       .  S
O1066      C1074   1.259       .  A
O1067      C1074   1.274       .  A
C1068      O1075   1.269       .  A
C1068      O1069   1.258       .  A
C1070      O1072   1.274       .  A
C1070      O1076   1.258       .  A
C1070      C1362   1.496       .  S
C1074      C1345   1.499       .  S
In1077     O1079   2.235       .  S
In1077     O1080   2.306       .  S
In1077     O1088   2.311       .  S
In1077     O1082   2.151       .  S
In1077     O1084   2.205       .  S
In1077     O1085   2.289       .  S
In1077     O1086   2.201       .  S
In1077     O1089   2.254       .  S
C1078      O1084   1.258       .  A
C1078      O1086   1.264       .  A
C1078      C1322   1.464       .  S
O1079      C1087   1.250       .  A
O1080      C1087   1.270       .  A
C1081      O1088   1.267       .  A
C1081      O1082   1.250       .  A
C1081      C1094   1.457       .  S
C1083      O1085   1.270       .  A
C1083      O1089   1.258       .  A
C1083      C1332   1.504       .  S
C1087      C1312   1.505       .  S
In1090     O1092   2.256       .  S
In1090     O1093   2.289       .  S
In1090     O1101   2.305       .  S
In1090     O1095   2.155       .  S
In1090     O1097   2.238       .  S
In1090     O1098   2.299       .  S
In1090     O1099   2.189       .  S
In1090     O1102   2.243       .  S
C1091      O1097   1.258       .  A
C1091      O1099   1.261       .  A
C1091      C1292   1.452       .  S
O1092      C1100   1.256       .  A
O1093      C1100   1.267       .  A
C1094      O1101   1.267       .  A
C1094      O1095   1.253       .  A
C1096      O1098   1.270       .  A
C1096      O1102   1.256       .  A
C1096      C1282   1.502       .  S
C1100      C1302   1.493       .  S
C1103      C1272   1.612       .  S
C1103      C1342   1.613       .  S
In1104     O1106   2.217       .  S
In1104     O1107   2.250       .  S
In1104     O1115   2.262       .  S
In1104     O1109   2.201       .  S
In1104     O1111   2.246       .  S
In1104     O1112   2.273       .  S
In1104     O1113   2.215       .  S
In1104     O1116   2.241       .  S
C1105      O1111   1.265       .  A
C1105      O1113   1.258       .  A
C1105      C1232   1.470       .  S
O1106      C1114   1.259       .  A
O1107      C1114   1.269       .  A
C1108      O1115   1.264   1_554  A
C1108      O1109   1.261   1_554  A
C1108      C1121   1.459       .  S
C1110      O1112   1.266       .  A
C1110      O1116   1.259       .  A
C1110      C1252   1.496       .  S
C1114      C1242   1.480       .  S
In1117     O1119   2.208       .  S
In1117     O1120   2.289       .  S
In1117     O1128   2.273       .  S
In1117     O1122   2.196       .  S
In1117     O1124   2.220       .  S
In1117     O1125   2.285       .  S
In1117     O1126   2.196       .  S
In1117     O1129   2.249       .  S
C1118      O1124   1.260       .  A
C1118      O1126   1.262       .  A
C1118      C1212   1.444       .  S
O1119      C1127   1.253       .  A
O1120      C1127   1.269       .  A
C1121      O1128   1.266       .  A
C1121      O1122   1.254       .  A
C1123      O1125   1.267       .  A
C1123      O1129   1.257       .  A
C1123      C1222   1.502       .  S
C1127      C1275   1.497       .  S
In1130     O1132   2.239       .  S
In1130     O1133   2.277       .  S
In1130     O1141   2.265       .  S
In1130     O1135   2.198       .  S
In1130     O1137   2.232       .  S
In1130     O1138   2.270       .  S
In1130     O1139   2.185       .  S
In1130     O1142   2.234       .  S
C1131      O1137   1.264       .  A
C1131      O1139   1.257       .  A
C1131      C1205   1.464       .  S
O1132      C1140   1.257       .  A
O1133      C1140   1.269       .  A
C1134      O1141   1.266   1_554  A
C1134      O1135   1.258   1_554  A
C1134      C1147   1.459       .  S
C1136      O1138   1.271       .  A
C1136      O1142   1.261       .  A
C1136      C1192   1.493       .  S
C1140      C1185   1.492       .  S
In1143     O1145   2.255       .  S
In1143     O1146   2.258       .  S
In1143     O1154   2.266       .  S
In1143     O1148   2.196       .  S
In1143     O1150   2.222       .  S
In1143     O1151   2.305       .  S
In1143     O1152   2.213       .  S
In1143     O1155   2.220       .  S
C1144      O1150   1.259       .  A
C1144      O1152   1.255       .  A
C1144      C1175   1.457       .  S
O1145      C1153   1.258       .  A
O1146      C1153   1.260       .  A
C1147      O1154   1.266       .  A
C1147      O1148   1.259       .  A
C1149      O1151   1.266       .  A
C1149      O1155   1.252       .  A
C1149      C1162   1.490       .  S
C1153      C1265   1.495       .  S
C1156      C1355   1.588       .  S
C1157      C1165   1.609       .  S
C1157      C1365   1.614       .  S
C1158      C1255   1.618       .  S
C1158      C1375   1.635       .  S
C1159      C1182   1.611       .  S
C1159      C1392   1.624       .  S
C1160      C1385   1.599       .  S
C1161      C1162   1.397       .  A
C1161      C1166   1.422       .  A
C1161     Br1168   1.934       .  S
C1162      C1163   1.400       .  A
C1163      C1164   1.400       .  A
C1163     Br1170   1.931       .  S
C1164      C1165   1.445       .  A
C1165      C1166   1.461       .  A
C1166     Br1167   1.930       .  S
C1171      C1172   1.451       .  A
C1171      C1176   1.401       .  A
C1171     Br1178   1.936       .  S
C1172      C1173   1.465       .  A
C1173      C1174   1.413       .  A
C1174      C1175   1.389       .  A
C1174     Br1179   1.950       .  S
C1175      C1176   1.394       .  A
C1176     Br1177   1.952       .  S
C1181      C1182   1.446       .  A
C1181      C1186   1.407       .  A
C1181     Br1188   1.945       .  S
C1182      C1183   1.459       .  A
C1183      C1184   1.420       .  A
C1183     Br1190   1.930       .  S
C1184      C1185   1.397       .  A
C1184     Br1189   1.938       .  S
C1185      C1186   1.405       .  A
C1186     Br1187   1.933       .  S
C1191      C1192   1.403       .  A
C1191      C1196   1.426       .  A
C1191     Br1198   1.943       .  S
C1192      C1193   1.398       .  A
C1193      C1194   1.414       .  A
C1193     Br1200   1.944       .  S
C1194      C1195   1.454       .  A
C1194     Br1199   1.934       .  S
C1195      C1196   1.459       .  A
C1196     Br1197   1.938       .  S
C1201      C1202   1.459       .  A
C1201      C1206   1.409       .  A
C1202      C1203   1.452       .  A
C1203      C1204   1.401       .  A
C1203     Br1210   1.942       .  S
C1204      C1205   1.400       .  A
C1204     Br1209   1.953       .  S
C1205      C1206   1.396       .  A
C1206     Br1207   1.945       .  S
C1211      C1212   1.381       .  A
C1211      C1216   1.387       .  A
C1211     Br1218   1.935       .  S
C1212      C1213   1.392       .  A
C1213      C1214   1.410       .  A
C1213     Br1220   1.934       .  S
C1214      C1215   1.453       .  A
C1215      C1216   1.446       .  A
C1221      C1222   1.399       .  A
C1221      C1226   1.417       .  A
C1221     Br1228   1.944       .  S
C1222      C1223   1.403       .  A
C1223      C1224   1.429       .  A
C1223     Br1230   1.946       .  S
C1224      C1225   1.463       .  A
C1225      C1226   1.456       .  A
C1226     Br1227   1.936       .  S
C1231      C1232   1.392       .  A
C1231      C1236   1.413       .  A
C1231     Br1238   1.936       .  S
C1232      C1233   1.390       .  A
C1233      C1234   1.411       .  A
C1233     Br1240   1.949       .  S
C1234      C1235   1.466       .  A
C1234     Br1239   1.953       .  S
C1235      C1236   1.449       .  A
C1241      C1242   1.396       .  A
C1241      C1246   1.409       .  A
C1241     Br1248   1.946       .  S
C1242      C1243   1.398       .  A
C1243      C1244   1.422       .  A
C1243     Br1250   1.944       .  S
C1244      C1245   1.462       .  A
C1245      C1246   1.454       .  A
C1246     Br1247   1.934       .  S
C1251      C1252   1.404       .  A
C1251      C1256   1.410       .  A
C1251     Br1258   1.940       .  S
C1252      C1253   1.401       .  A
C1253      C1254   1.421       .  A
C1253     Br1260   1.938       .  S
C1254      C1255   1.458       .  A
C1254     Br1259   1.933       .  S
C1255      C1256   1.454       .  A
C1261      C1262   1.461       .  A
C1261      C1266   1.417       .  A
C1261     Br1268   1.936       .  S
C1262      C1263   1.452       .  A
C1263      C1264   1.422       .  A
C1264      C1265   1.408       .  A
C1264     Br1269   1.947       .  S
C1265      C1266   1.395       .  A
C1266     Br1267   1.944       .  S
C1271      C1272   1.452       .  A
C1271      C1276   1.405       .  A
C1271     Br1278   1.948       .  S
C1272      C1273   1.444       .  A
C1273      C1274   1.418       .  A
C1273     Br1280   1.928   1_565  S
C1274      C1275   1.412       .  A
C1274     Br1279   1.940       .  S
C1275      C1276   1.402       .  A
C1276     Br1277   1.933       .  S
C1281      C1282   1.404       .  A
C1281      C1286   1.428       .  A
C1281     Br1288   1.944       .  S
C1282      C1283   1.398       .  A
C1283      C1284   1.419       .  A
C1283     Br1290   1.943       .  S
C1284      C1285   1.458       .  A
C1284     Br1289   1.936       .  S
C1285      C1286   1.461       .  A
C1291      C1292   1.391       .  A
C1291      C1296   1.410       .  A
C1291     Br1298   1.939       .  S
C1292      C1293   1.382       .  A
C1293      C1294   1.391       .  A
C1293     Br1300   1.933       .  S
C1294      C1295   1.445       .  A
C1294     Br1299   1.935   1_655  S
C1295      C1296   1.456       .  A
C1296     Br1297   1.929       .  S
C1301      C1302   1.395       .  A
C1301      C1306   1.423       .  A
C1301     Br1308   1.940       .  S
C1302      C1303   1.401       .  A
C1303      C1304   1.421       .  A
C1303     Br1310   1.931       .  S
C1304      C1305   1.452       .  A
C1305      C1306   1.461       .  A
C1306     Br1307   1.925       .  S
C1311      C1312   1.399       .  A
C1311      C1316   1.417       .  A
C1311     Br1318   1.944       .  S
C1312      C1313   1.411       .  A
C1313      C1314   1.427       .  A
C1313     Br1320   1.944       .  S
C1314      C1315   1.458       .  A
C1314     Br1319   1.946       .  S
C1315      C1316   1.460       .  A
C1316     Br1317   1.938       .  S
C1321      C1322   1.404       .  A
C1321      C1326   1.412       .  A
C1321     Br1328   1.942       .  S
C1322      C1323   1.390       .  A
C1323      C1324   1.390       .  A
C1323     Br1330   1.945       .  S
C1324      C1325   1.449       .  A
C1324     Br1329   1.926       .  S
C1325      C1326   1.456       .  A
C1331      C1332   1.399       .  A
C1331      C1336   1.419       .  A
C1331     Br1338   1.947       .  S
C1332      C1333   1.407       .  A
C1333      C1334   1.430       .  A
C1333     Br1340   1.943       .  S
C1334      C1335   1.459       .  A
C1334     Br1339   1.940       .  S
C1335      C1336   1.461       .  A
C1336     Br1337   1.939       .  S
C1341      C1342   1.457       .  A
C1341      C1346   1.419       .  A
C1341     Br1348   1.927       .  S
C1342      C1343   1.450       .  A
C1343      C1344   1.423       .  A
C1343     Br1350   1.941   1_565  S
C1344      C1345   1.409       .  A
C1344     Br1349   1.935       .  S
C1345      C1346   1.394       .  A
C1346     Br1347   1.938       .  S
C1351      C1352   1.407       .  A
C1351      C1356   1.407       .  A
C1351     Br1358   1.951       .  S
C1352      C1353   1.398       .  A
C1353      C1354   1.399       .  A
C1353     Br1360   1.942       .  S
C1354      C1355   1.451       .  A
C1355      C1356   1.452       .  A
C1356     Br1357   1.941       .  S
C1361      C1362   1.403       .  A
C1361      C1366   1.403       .  A
C1361     Br1368   1.923       .  S
C1362      C1363   1.397       .  A
C1363      C1364   1.426       .  A
C1363     Br1370   1.932       .  S
C1364      C1365   1.461       .  A
C1364     Br1369   1.928       .  S
C1365      C1366   1.441       .  A
C1371      C1372   1.394       .  A
C1371      C1376   1.426       .  A
C1371     Br1378   1.934       .  S
C1372      C1373   1.395       .  A
C1373      C1374   1.425       .  A
C1373     Br1380   1.946       .  S
C1374      C1375   1.470       .  A
C1374     Br1379   1.951       .  S
C1375      C1376   1.459       .  A
C1376     Br1377   1.932       .  S
C1381      C1382   1.389       .  A
C1381      C1386   1.408       .  A
C1381     Br1388   1.942       .  S
C1382      C1383   1.381       .  A
C1383      C1384   1.401       .  A
C1383     Br1390   1.939       .  S
C1384      C1385   1.460       .  A
C1384     Br1389   1.947       .  S
C1385      C1386   1.454       .  A
C1391      C1392   1.455       .  A
C1391      C1396   1.424       .  A
C1391     Br1398   1.934       .  S
C1392      C1393   1.460       .  A
C1393      C1394   1.422       .  A
C1393     Br1400   1.951       .  S
C1394      C1395   1.409       .  A
C1394     Br1399   1.947       .  S
C1395      C1396   1.399       .  A
C1396     Br1397   1.937       .  S
