geometry optimzed in LAMMPS
_audit_creation_date              2020-11-30 
_audit_creation_method            'lammps2cif' 
_symmetry_space_group_name_H-M    'P1' 
_symmetry_Int_Tables_number       1 
_symmetry_cell_setting            triclinic 
loop_ 
_symmetry_equiv_pos_as_xyz 
  x,y,z 
_cell_length_a                    39.62897984 
_cell_length_b                    39.456877722125256 
_cell_length_c                    60.60554269825449 
_cell_angle_alpha                 86.23145354819236 
_cell_angle_beta                  89.6552219020318 
_cell_angle_gamma                 120.02479341396953 
loop_ 
_atom_site_label 
_atom_site_type_symbol 
_atom_site_fract_x 
_atom_site_fract_y 
_atom_site_fract_z 
_atom_site_charge 
C1          C  0.11611812  0.51924130  0.09891441     0.80100
N2          N  0.11891796  0.04403082  0.11423217    -0.78200
C3          C  0.13032363  0.04010610  0.13494587     0.82500
N4          N  0.13842261  0.51098082  0.14037472    -0.78200
C5          C  0.13593313  0.48625882  0.12507928     0.82600
N6          N  0.12486787  0.49078091  0.10449678    -0.79900
C7          C  0.14416584  0.08482103  0.18839761     0.80100
N8          N  0.13852008  0.11528984  0.18262254    -0.78200
C9          C  0.13056410  0.12214603  0.16161156     0.82500
N10         N  0.12774942  0.09753325  0.14612630    -0.78200
C11         C  0.13296310  0.06651523  0.15171411     0.82600
N12         N  0.14164303  0.06054722  0.17280269    -0.79900
C13         C  0.42523642  0.08507541  0.09791283     0.80100
N14         N  0.39760984  0.06196679  0.11388121    -0.78200
C15         C  0.40070549  0.07283739  0.13485118     0.82500
N16         N  0.43200401  0.10723322  0.13999724    -0.78200
C17         C  0.46004818  0.13076044  0.12418725     0.82600
N18         N  0.45629426  0.11934594  0.10321582    -0.79900
C19         C  0.34266105  0.03708353  0.18781421     0.80100
N20         N  0.31259942  0.50215270  0.18263635    -0.78200
C21         C  0.31079287  0.48927890  0.16224362     0.82500
N22         N  0.33971732  0.51223524  0.14675548    -0.78200
C23         C  0.37006731  0.04749868  0.15172983     0.82600
N24         N  0.37139419  0.05970717  0.17227661    -0.79900
C25         C  0.40597228  0.28613798  0.18721845     0.80100
N26         N  0.38441814  0.29125183  0.17139613    -0.78200
C27         C  0.39906306  0.30312318  0.15014356     0.82500
N28         N  0.43518355  0.30901619  0.14467189    -0.78200
C29         C  0.45681630  0.30365789  0.16041366     0.82600
N30         N  0.44183691  0.29233038  0.18151535    -0.79900
C31         C  0.31833926  0.30947676  0.12296907     0.80100
N32         N  0.33266106  0.31937601  0.10169342    -0.78200
C33         C  0.36787414  0.32396113  0.09578024     0.82500
N34         N  0.38929311  0.31868631  0.11163908    -0.78200
C35         C  0.37549548  0.30866127  0.13307809     0.82600
N36         N  0.34007959  0.30428539  0.13870070    -0.79900
C37         C  0.17314674  0.30532883  0.14389044     0.02100
C38         C  0.17463354  0.34166137  0.14516523     0.02100
C39         C  0.13999133  0.34345262  0.14429932     0.02100
C40         C  0.10353149  0.30884158  0.14364456     0.02100
C41         C  0.10188457  0.27247299  0.14272353     0.02100
C42         C  0.13655496  0.27059708  0.14321995     0.02100
O43         O  0.19825767  0.10203702  0.29064607    -0.81000
O44         O  0.34969413  0.18232515  0.34776062    -0.65700
O45         O  0.27194577  0.15356614  0.30552644    -1.12300
C46         C  0.33478834  0.09970739  0.26957962     1.05900
O47         O  0.39943571  0.18984913  0.32638877    -0.78900
O48         O  0.37403104  0.20117656  0.28552113    -0.66500
Ni49       Ni  0.21905958  0.12932905  0.31703981     1.34900
C50         C  0.35011683  0.19530505  0.27029473     0.84600
O51         O  0.29481782  0.20032287  0.34055337    -0.79500
O52         O  0.23177153  0.15624237  0.34399879    -0.89700
C53         C  0.38515478  0.19214860  0.34470790     0.84200
O54         O  0.22250232  0.08674778  0.33181514    -0.67900
O55         O  0.36483990  0.13063233  0.27503117    -0.87200
C56         C  0.24590436  0.09179646  0.34730742     0.85000
C57         C  0.26144583  0.18693209  0.34998232     1.06600
H58         H  0.32033230  0.11265376  0.32272688     0.38400
O59         O  0.32542337  0.13524222  0.31297919    -1.09900
O60         O  0.31789119  0.16306933  0.26998332    -0.66500
Ni61       Ni  0.28639604  0.12001328  0.29186069     1.26300
O62         O  0.27834455  0.12378925  0.34809934    -0.66800
O63         O  0.30167846  0.08699071  0.27908833    -0.79100
C64         C  0.21267471  0.09802523  0.27282431     0.84400
O65         O  0.24737163  0.10495771  0.27089502    -0.66200
Ni66       Ni  0.37815396  0.15978587  0.30110960     1.27400
Ni67       Ni  0.31054191  0.16802877  0.32695803     1.26100
H68         H  0.27757799  0.17634474  0.29570635     0.38900
C69         C  0.27637216  0.47527949  0.49400072     0.80100
N70         N  0.26161800  0.46358007  0.51513576    -0.78200
C71         C  0.22601286  0.45760037  0.52119478     0.82500
N72         N  0.20450652  0.46361160  0.50562495    -0.78200
C73         C  0.21905740  0.47612825  0.48432719     0.82600
N74         N  0.25497759  0.98161957  0.47865899    -0.79900
C75         C  0.13729167  0.48064196  0.45718188     0.80100
N76         N  0.15222347  0.49271479  0.43611420    -0.78200
C77         C  0.18842250  0.49989394  0.43033057     0.82500
N78         N  0.21023770  0.49491023  0.44610029    -0.78200
C79         C  0.19556768  0.48230438  0.46735578     0.82600
N80         N  0.15920523  0.47563427  0.47286781    -0.79900
C81         C  0.16705794  0.20213575  0.52144019     0.80100
N82         N  0.13622869  0.16794500  0.51586138    -0.78200
C83         C  0.13399699  0.15551534  0.49524924     0.82500
N84         N  0.16341833  0.17804367  0.47993756    -0.78200
C85         C  0.19456207  0.21244559  0.48524407     0.82600
N86         N  0.19610617  0.22435035  0.50594045    -0.79900
C87         C  0.25280355  0.24961237  0.43207152     0.80100
N88         N  0.28126491  0.28545584  0.43716714    -0.78200
C89         C  0.28240878  0.29799248  0.45756864     0.82500
N90         N  0.25450169  0.27391401  0.47327467    -0.78200
C91         C  0.22538222  0.23792497  0.46838273     0.82600
N92         N  0.22466299  0.22589474  0.44777073    -0.79900
C93         C  0.46181672  0.25293037  0.52084525     0.80100
N94         N  0.46026590  0.22998448  0.50474380    -0.78200
C95         C  0.45368606  0.23804092  0.48362043     0.82500
N96         N  0.44967923  0.26994116  0.47847606    -0.78200
C97         C  0.45159661  0.29340079  0.49447261     0.82600
N98         N  0.45757099  0.28446690  0.51557656    -0.79900
C99         C  0.44944111  0.20090345  0.42871242     0.80100
N100        N  0.44933377  0.22303765  0.44488804    -0.78200
C101        C  0.95317565  0.21357940  0.46628714     0.82500
N102        N  0.95660938  0.18141365  0.47156755    -0.78200
C103        C  0.95680877  0.15908880  0.45547335     0.82600
N104        N  0.45319874  0.16908851  0.43414869    -0.79900
C105        C  0.42070269  0.44267009  0.47487142     0.02100
C106        C  0.42163990  0.47887478  0.47489732     0.02100
C107        C  0.45777001  0.01412947  0.47486753     0.02100
C108        C  0.49291745  0.01311805  0.47583919     0.02100
C109        C  0.49194058  0.47686716  0.47544827     0.02100
C110        C  0.45570826  0.44151809  0.47563238     0.02100
C111        C  0.26579419  0.36474223  0.76404915     0.80100
N112        N  0.26938360  0.33286342  0.76932565    -0.78200
C113        C  0.27680173  0.32448756  0.79017481     0.82500
N114        N  0.28084645  0.34895927  0.80609255    -0.78200
C115        C  0.27732771  0.38122412  0.80102032     0.82600
N116        N  0.26931137  0.38867946  0.78003584    -0.79900
C117        C  0.29526056  0.42760951  0.85437893     0.80100
N118        N  0.28883683  0.45764547  0.84879011    -0.78200
C119        C  0.27898479  0.46339583  0.82812534     0.82500
N120        N  0.27552692  0.43851761  0.81271033    -0.78200
C121        C  0.28143995  0.40788248  0.81803659     0.82600
N122        N  0.29182997  0.40274998  0.83885457    -0.79900
C123        C  0.06664797  0.41522702  0.76274310     0.80100
N124        N  0.09715733  0.44971322  0.76820628    -0.78200
C125        C  0.09994166  0.46164887  0.78894056     0.82500
N126        N  0.07144832  0.43822157  0.80452179    -0.78200
C127        C  0.04054474  0.40354596  0.79929589     0.82600
N128        N  0.03834453  0.39216313  0.77843737    -0.79900
C129        C  0.48797636  0.36405110  0.85376894     0.80100
N130        N  0.45665045  0.32993676  0.84851415    -0.78200
C131        C  0.45190540  0.31934688  0.82735461     0.82500
N132        N  0.47913829  0.34341349  0.81131197    -0.78200
C133        C  0.01070261  0.37759372  0.81641246     0.82600
N134        N  0.01482274  0.38770192  0.83757202    -0.79900
C135        C  0.09062322  0.13331615  0.82568502     0.80100
N136        N  0.06985263  0.13983089  0.80983838    -0.78200
C137        C  0.03477427  0.13640416  0.81524905     0.82500
N138        N  0.02043922  0.12619774  0.83662690    -0.78200
C139        C  0.04091838  0.11972357  0.85264054     0.82600
N140        N  0.07582851  0.12337377  0.84690492    -0.79900
C141        C  0.50585800  0.16225716  0.76124444     0.80100
N142        N  0.02704496  0.15599056  0.77691812    -0.78200
C143        C  0.51208438  0.14336672  0.79811956     0.82500
N144        N  0.47627805  0.13808673  0.80364919    -0.78200
C145        C  0.45513183  0.14472178  0.78815184     0.82600
N146        N  0.47026349  0.15663793  0.76709684    -0.79900
C147        C  0.23911878  0.14195917  0.80836220     0.02100
C148        C  0.27497003  0.17757183  0.80897156     0.02100
C149        C  0.31040617  0.17713124  0.80938805     0.02100
C150        C  0.31023098  0.14146561  0.80824480     0.02100
C151        C  0.27451803  0.10599291  0.80797047     0.02100
C152        C  0.23906370  0.10626830  0.80736888     0.02100
O153        O  0.42967665  0.04118937  0.99444525    -0.81000
O154        O  0.47289577  0.44652625  0.93360875    -0.65700
O155        O  0.42433132  0.47320098  0.97758378    -1.12300
C156        C  0.03461102  0.49454712  0.01795561     1.05900
O157        O  0.48452436  0.40829383  0.95690579    -0.78900
O158        O  0.46660125  0.40374416  0.00117844    -0.66500
Ni159      Ni  0.40471626  0.00799676  0.97030966     1.34900
C160        C  0.44337042  0.40837311  0.01345415     0.84600
O161        O  0.40438487  0.44282038  0.93644666    -0.79500
O162        O  0.37650826  0.47737482  0.94631380    -0.89700
C163        C  0.48191532  0.42028592  0.93732229     0.84200
O164        O  0.44524963  0.04458988  0.94931681    -0.67900
O165        O  0.03605095  0.46994967  0.00585306    -0.87200
C166        C  0.46901671  0.04048310  0.93713546     0.85000
C167        C  0.37901430  0.45341623  0.93409458     1.06600
H168        H  0.01248858  0.50057887  0.96739470     0.38400
O169        O  0.49046221  0.47662059  0.97394540    -1.09900
O170        O  0.44147801  0.43957715  0.01248438    -0.66500
Ni171      Ni  0.46705868  0.49013462  0.99654619     1.26300
O172        O  0.47297749  0.01043534  0.93894868    -0.66800
O173        O  0.01042241  0.50670099  0.01529545    -0.79100
C174        C  0.43232974  0.02930789  0.01411002     0.84400
O175        O  0.44198099  0.00352803  0.01786011    -0.66200
Ni176      Ni  0.50876925  0.44063811  0.98132650     1.27400
Ni177      Ni  0.44777755  0.45980931  0.95501354     1.26100
H178        H  0.40247847  0.44907081  0.98410711     0.38900
O179        O  0.01680773  0.26568627  0.62195121    -0.81000
O180        O  0.16457025  0.34764955  0.68110856    -0.65700
O181        O  0.08958030  0.31956683  0.63728684    -1.12300
C182        C  0.15554841  0.26749770  0.60199014     1.05900
O183        O  0.21535185  0.35326870  0.66173117    -0.78900
O184        O  0.19430179  0.36826701  0.61965871    -0.66500
Ni185      Ni  0.03603598  0.29453748  0.64799531     1.30400
C186        C  0.17142676  0.36374783  0.60397851     0.84600
O187        O  0.11058584  0.36588268  0.67223501    -0.79500
O188        O  0.04720011  0.32256446  0.67460898    -0.89700
C189        C  0.19980757  0.35616819  0.67948077     0.84200
O190        O  0.03873110  0.25231022  0.66380128    -0.67900
O191        O  0.18510807  0.29797544  0.60838016    -0.87200
C192        C  0.06204520  0.25739895  0.67930201     0.85000
C193        C  0.07682374  0.35302492  0.68093911     1.06600
H194        H  0.13643778  0.27786731  0.65531966     0.38400
O195        O  0.14262466  0.30102754  0.64568646    -1.09900
O196        O  0.13889718  0.33194525  0.60286345    -0.66500
Ni197      Ni  0.10544215  0.28728512  0.62348565     1.26300
O198        O  0.09414283  0.28956353  0.68025465    -0.66800
O199        O  0.12164158  0.25498995  0.61038444    -0.79100
C200        C  0.03233176  0.26399049  0.60387782     0.84400
O201        O  0.06793192  0.27392405  0.60172234    -0.66200
Ni202      Ni  0.19620680  0.32540662  0.63526096     1.27400
Ni203      Ni  0.12698591  0.33370441  0.65933355     1.26100
H204        H  0.09537668  0.34254949  0.62768877     0.38900
C205        C  0.39790001  0.15140322  0.77731985    -0.21400
C206        C  0.41717058  0.14194872  0.79396451    -0.09500
C207        C  0.40037181  0.13166055  0.81573798     0.29400
C208        C  0.36570475  0.13174779  0.82057171    -0.21400
C209        C  0.34735352  0.14194677  0.80384155    -0.09500
C210        C  0.36355327  0.15148145  0.78218460     0.29400
F211        F  0.34577393  0.16054183  0.76563123    -0.20000
H212        H  0.40950711  0.15916409  0.76037374     0.17700
H213        H  0.35313357  0.12386426  0.83732265     0.17800
F214        F  0.41728026  0.12165579  0.83236225    -0.20000
C215        C  0.06205290  0.20778525  0.73520538    -0.21400
C216        C  0.02240015  0.17956607  0.73858078    -0.09500
C217        C  0.99762986  0.17249769  0.72075972     0.29400
C218        C  0.01150297  0.19584931  0.70076364    -0.21400
C219        C  0.05025701  0.22691112  0.69814006    -0.09500
C220        C  0.07595848  0.23134641  0.71524524     0.29400
F221        F  0.11407418  0.25995261  0.71330984    -0.20000
H222        H  0.08179398  0.21360905  0.74857335     0.17700
H223        H  0.99114513  0.19111241  0.68786440     0.17800
F224        F  0.45942457  0.14421033  0.72303008    -0.20000
C225        C  0.15322039  0.13872210  0.83776788    -0.21400
C226        C  0.12903872  0.13665700  0.82036203    -0.09500
C227        C  0.14181380  0.13683957  0.79850968     0.29400
C228        C  0.17789084  0.13911049  0.79442198    -0.21400
C229        C  0.20167370  0.14132405  0.81197682    -0.09500
C230        C  0.18898490  0.14098020  0.83364979     0.29400
F231        F  0.21095995  0.14190115  0.85094950    -0.20000
H232        H  0.14445856  0.13847150  0.85476275     0.17700
H233        H  0.18712636  0.13872766  0.77762956     0.17800
F234        F  0.11916732  0.13375520  0.78118607    -0.20000
C235        C  0.04541038  0.09616804  0.89133183    -0.21400
C236        C  0.02475660  0.10622769  0.87592178    -0.09500
C237        C  0.98805364  0.10059743  0.88280628     0.29400
C238        C  0.97160800  0.08275619  0.90394053    -0.21400
C239        C  0.99109299  0.06980855  0.91845689    -0.09500
C240        C  0.02872781  0.07789447  0.91221052     0.29400
F241        F  0.54854352  0.06608797  0.92588142    -0.20000
H242        H  0.07390675  0.10055106  0.88689720     0.17700
H243        H  0.94230107  0.07629305  0.90827127     0.17800
F244        F  0.96701918  0.11029208  0.86884900    -0.20000
C245        C  0.39434546  0.25389108  0.83931969    -0.21400
C246        C  0.41668695  0.28236956  0.82205247    -0.09500
C247        C  0.40413245  0.27535561  0.80020838     0.29400
C248        C  0.36954910  0.24110381  0.79602586    -0.21400
C249        C  0.34734348  0.21326195  0.81342559    -0.09500
C250        C  0.36019463  0.21962223  0.83505368     0.29400
F251        F  0.33934671  0.19275162  0.85210475    -0.20000
H252        H  0.40325126  0.25808758  0.85624918     0.17700
H253        H  0.35993700  0.23633127  0.77924533     0.17800
F254        F  0.42457788  0.30184505  0.78295379    -0.20000
C255        C  0.46592054  0.35046960  0.89388086    -0.21400
C256        C  0.49108874  0.37678179  0.87651178    -0.09500
C257        C  0.01686491  0.41611896  0.88078587     0.29400
C258        C  0.01513367  0.42920179  0.90130581    -0.21400
C259        C  0.48849603  0.40346972  0.91807800    -0.09500
C260        C  0.46469300  0.36367730  0.91459267     0.29400
F261        F  0.43823672  0.33839727  0.93053775    -0.20000
H262        H  0.44603759  0.31998665  0.89119549     0.17700
H263        H  0.03357415  0.46005571  0.90383517     0.17800
F264        F  0.04211184  0.44278168  0.86485152    -0.20000
C265        C  0.16376490  0.02135222  0.77761114    -0.21400
C266        C  0.13495936  0.99880872  0.79443721    -0.09500
C267        C  0.14063147  0.01241925  0.81584629     0.29400
C268        C  0.17428595  0.04759263  0.82007954    -0.21400
C269        C  0.20265373  0.06963469  0.80313571    -0.09500
C270        C  0.19715979  0.05623439  0.78188849     0.29400
F271        F  0.22430473  0.07697326  0.76522710    -0.20000
H272        H  0.16071850  0.01199714  0.76098217     0.17700
H273        H  0.17845514  0.05747805  0.83661599     0.17800
F274        F  0.11338771  0.49243772  0.83245731    -0.20000
C275        C  0.03719532  0.35359794  0.71313991    -0.21400
C276        C  0.07234932  0.37197594  0.70021523    -0.09500
C277        C  0.10407097  0.40652961  0.70715151     0.29400
C278        C  0.10112947  0.42109132  0.72695831    -0.21400
C279        C  0.06678627  0.40157017  0.74053018    -0.09500
C280        C  0.03435465  0.36805655  0.73312777     0.29400
F281        F  0.00018846  0.34860945  0.74533655    -0.20000
H282        H  0.01220416  0.32704499  0.70823469     0.17700
H283        H  0.12660013  0.44704678  0.73202786     0.17800
F284        F  0.13856401  0.42576362  0.69525344    -0.20000
C285        C  0.26476167  0.05048910  0.83375454    -0.21400
C286        C  0.27369730  0.06822194  0.81215128    -0.09500
C287        C  0.28265084  0.05059989  0.79544911     0.29400
C288        C  0.28284954  0.01555460  0.80052185    -0.21400
C289        C  0.27478800  0.99815504  0.82235928    -0.09500
C290        C  0.26540981  0.01592876  0.83892408     0.29400
F291        F  0.25688298  0.00006438  0.86017533    -0.20000
H292        H  0.25784971  0.06393281  0.84675229     0.17700
H293        H  0.29053868  0.00273300  0.78752753     0.17800
F294        F  0.29177987  0.06755566  0.77443914    -0.20000
C295        C  0.33770319  0.41334231  0.87905897    -0.21400
C296        C  0.31024270  0.42567430  0.87644630    -0.09500
C297        C  0.30167952  0.44172142  0.89426757     0.29400
C298        C  0.32240819  0.44815167  0.91352778    -0.21400
C299        C  0.35233827  0.43904264  0.91549179    -0.09500
C300        C  0.35882199  0.42012648  0.89831093     0.29400
F301        F  0.38734491  0.41063623  0.89929926    -0.20000
H302        H  0.34487136  0.40100221  0.86557682     0.17700
H303        H  0.31615953  0.46207791  0.92651133     0.17800
F304        F  0.27440526  0.45288425  0.89275537    -0.20000
C305        C  0.28001319  0.27487220  0.81733968    -0.21400
C306        C  0.27832373  0.28781291  0.79533893    -0.09500
C307        C  0.27663661  0.26437562  0.77823131     0.29400
C308        C  0.27508439  0.22863528  0.78314670    -0.21400
C309        C  0.27594909  0.21554126  0.80500178    -0.09500
C310        C  0.27913986  0.23911157  0.82214402     0.29400
F311        F  0.28128243  0.22751788  0.84341103    -0.20000
H312        H  0.28167016  0.29221086  0.83085125     0.17700
H313        H  0.27349964  0.21106636  0.76975011     0.17800
F314        F  0.27664289  0.27575006  0.75660284    -0.20000
C315        C  0.25293748  0.35880949  0.70246903    -0.21400
C316        C  0.22270414  0.36727758  0.69967757    -0.09500
C317        C  0.21105720  0.38075746  0.71761594     0.29400
C318        C  0.22742152  0.38284412  0.73824305    -0.21400
C319        C  0.25506087  0.37089245  0.74144137    -0.09500
C320        C  0.26878085  0.36028336  0.72316151     0.29400
F321        F  0.29650672  0.34986173  0.72550032    -0.20000
H322        H  0.26257396  0.34847330  0.68901199     0.17700
H323        H  0.21656569  0.39129638  0.75206195     0.17800
F324        F  0.18253807  0.39011655  0.71555885    -0.20000
C325        C  0.47211081  0.07252048  0.44993140    -0.21400
C326        C  0.45920670  0.05236414  0.47088634    -0.09500
C327        C  0.44695241  0.06813916  0.48716126     0.29400
C328        C  0.44694938  0.10331050  0.48223557    -0.21400
C329        C  0.45907458  0.12315868  0.46102506    -0.09500
C330        C  0.47205883  0.10749985  0.44495102     0.29400
F331        F  0.48497505  0.12600739  0.42441784    -0.20000
H332        H  0.48180726  0.06074024  0.43727362     0.17700
H333        H  0.93670793  0.11458754  0.49489146     0.17800
F334        F  0.43488935  0.04954264  0.50771004    -0.20000
C335        C  0.45952722  0.35669708  0.50561301    -0.21400
C336        C  0.45096747  0.33045443  0.48905828    -0.09500
C337        C  0.44372232  0.34116721  0.46765779     0.29400
C338        C  0.44528014  0.37730502  0.46316320    -0.21400
C339        C  0.45428525  0.40327355  0.47980692    -0.09500
C340        C  0.46136050  0.39265037  0.50104319     0.29400
F341        F  0.46985896  0.41712919  0.51747640    -0.20000
H342        H  0.46538750  0.34976479  0.52222199     0.17700
H343        H  0.43968116  0.38517507  0.44669378     0.17800
F344        F  0.43528758  0.31702747  0.45106498    -0.20000
C345        C  0.50283124  0.23728586  0.54550700    -0.21400
C346        C  0.47374995  0.24746820  0.54314905    -0.09500
C347        C  0.46022069  0.25734093  0.56178622     0.29400
C348        C  0.47722146  0.25924207  0.58212492    -0.21400
C349        C  0.00870877  0.25245460  0.58405081    -0.09500
C350        C  0.02060875  0.24023275  0.56566759     0.29400
F351        F  0.05073471  0.23309575  0.56679591    -0.20000
H352        H  0.51379114  0.22975386  0.53132586     0.17700
H353        H  0.46753720  0.26877675  0.59595250     0.17800
F354        F  0.43174965  0.26683560  0.56010954    -0.20000
C355        C  0.32780703  0.34355140  0.48440518    -0.21400
C356        C  0.31530970  0.33661181  0.46263920    -0.09500
C357        C  0.33646315  0.36596564  0.44544137     0.29400
C358        C  0.37005644  0.40055338  0.44986752    -0.21400
C359        C  0.38339518  0.40658741  0.47135882    -0.09500
C360        C  0.36183636  0.37820594  0.48874337     0.29400
F361        F  0.37412665  0.38365407  0.50973136    -0.20000
H362        H  0.31211696  0.32152907  0.49792650     0.17700
H363        H  0.38631067  0.42246648  0.43637667     0.17800
F364        F  0.32498116  0.36125566  0.42425795    -0.20000
C365        C  0.05984346  0.06962389  0.46393278    -0.21400
C366        C  0.02963978  0.04945739  0.48020097    -0.09500
C367        C  0.03389169  0.06414034  0.50106915     0.29400
C368        C  0.06787953  0.09817693  0.50570835    -0.21400
C369        C  0.09853781  0.11877738  0.48960349    -0.09500
C370        C  0.09402512  0.10414031  0.46848806     0.29400
F371        F  0.12228533  0.12309677  0.45218602    -0.20000
H372        H  0.05675720  0.05875940  0.44768431     0.17700
H373        H  0.06992453  0.10842550  0.52205302     0.17800
F374        F  0.00506428  0.04525020  0.51709554    -0.20000
C375        C  0.13323955  0.19611955  0.55775663    -0.21400
C376        C  0.16671158  0.21658736  0.54348722    -0.09500
C377        C  0.19811074  0.25190082  0.55000347     0.29400
C378        C  0.19487082  0.26727610  0.56955213    -0.21400
C379        C  0.16043759  0.24797576  0.58307372    -0.09500
C380        C  0.12998359  0.21153466  0.57724561     0.29400
F381        F  0.09655795  0.19106222  0.59004429    -0.20000
H382        H  0.10872476  0.16860818  0.55351417     0.17700
H383        H  0.21895191  0.29520715  0.57364353     0.17800
F384        F  0.23162849  0.27233773  0.53729240    -0.20000
C385        C  0.09005739  0.48308779  0.48402358    -0.21400
C386        C  0.09858462  0.47590141  0.46284246    -0.09500
C387        C  0.07088261  0.46726835  0.44647284     0.29400
C388        C  0.03635491  0.46728577  0.45100775    -0.21400
C389        C  0.02854956  0.47586722  0.47183772    -0.09500
C390        C  0.05534238  0.48323974  0.48849594     0.29400
F391        F  0.04811050  0.49093290  0.50892721    -0.20000
H392        H  0.11083498  0.48988839  0.49689406     0.17700
H393        H  0.01572336  0.46108380  0.43808435     0.17800
F394        F  0.07708317  0.45886314  0.42599419    -0.20000
C395        C  0.36648580  0.98872362  0.46195960    -0.21400
C396        C  0.38471603  0.47893444  0.47889760    -0.09500
C397        C  0.36810889  0.46928045  0.50043468     0.29400
C398        C  0.33359063  0.46903244  0.50501433    -0.21400
C399        C  0.31436195  0.47813832  0.48819497    -0.09500
C400        C  0.33142404  0.98828662  0.46651480     0.29400
F401        F  0.31427988  0.99752804  0.44969293    -0.20000
H402        H  0.37927064  0.99648065  0.44525723     0.17700
H403        H  0.32186050  0.46131450  0.52193400     0.17800
F404        F  0.38579440  0.46060278  0.51720052    -0.20000
C405        C  0.23593180  0.44698589  0.56122773    -0.21400
C406        C  0.21009772  0.44039192  0.54403042    -0.09500
C407        C  0.17032075  0.41295033  0.54827829     0.29400
C408        C  0.15751382  0.39014938  0.56853290    -0.21400
C409        C  0.18392407  0.39434813  0.58508229    -0.09500
C410        C  0.22308692  0.42454716  0.58159004     0.29400
F411        F  0.24966749  0.43070291  0.59714218    -0.20000
H412        H  0.26668169  0.46835269  0.55852022     0.17700
H413        H  0.12708192  0.36757048  0.57073765     0.17800
F414        F  0.14430929  0.40557771  0.53223832    -0.20000
C415        C  0.45210612  0.19322201  0.38844633    -0.21400
C416        C  0.44108065  0.20818159  0.40576097    -0.09500
C417        C  0.41741220  0.22483255  0.40128992     0.29400
C418        C  0.40180754  0.22258147  0.38051538    -0.21400
C419        C  0.40997558  0.20431637  0.36385908    -0.09500
C420        C  0.43684038  0.19138548  0.36759564     0.29400
F421        F  0.44509297  0.17314987  0.35195718    -0.20000
H422        H  0.47068040  0.18067735  0.39142506     0.17700
H423        H  0.38129230  0.23287029  0.37788391     0.17800
F424        F  0.40617235  0.23979585  0.41746460    -0.20000
C425        C  0.29030068  0.23887303  0.37668756    -0.21400
C426        C  0.25756089  0.20552795  0.36960481    -0.09500
C427        C  0.22228709  0.18866231  0.38246781     0.29400
C428        C  0.22075054  0.20354977  0.40252510    -0.21400
C429        C  0.25394238  0.23595257  0.41000204    -0.09500
C430        C  0.28857348  0.25419384  0.39649387     0.29400
F431        F  0.32144567  0.28594903  0.40270284    -0.20000
H432        H  0.31777482  0.25270727  0.36715483     0.17700
H433        H  0.19355310  0.18935825  0.41233590     0.17800
F434        F  0.18942027  0.15712026  0.37608006    -0.20000
C435        C  0.24480118  0.04318590  0.40376743    -0.21400
C436        C  0.20472550  0.01678134  0.40762494    -0.09500
C437        C  0.17971026  0.01046615  0.38998409     0.29400
C438        C  0.19398310  0.03270532  0.36969234    -0.21400
C439        C  0.23342151  0.06188792  0.36649364    -0.09500
C440        C  0.25911903  0.06562192  0.38346582     0.29400
F441        F  0.29778318  0.09243078  0.38099174    -0.20000
H442        H  0.26474085  0.54829802  0.41683058     0.17700
H443        H  0.17351038  0.02866400  0.35696453     0.17800
F444        F  0.14101693  0.98389063  0.39258349    -0.20000
C445        C  0.26942200  0.30680629  0.15093994    -0.21400
C446        C  0.28014712  0.30621703  0.12880015    -0.09500
C447        C  0.25450806  0.30400598  0.11212906     0.29400
C448        C  0.21978614  0.30313685  0.11749478    -0.21400
C449        C  0.20960464  0.30447797  0.13943010    -0.09500
C450        C  0.23450892  0.30613626  0.15622859     0.29400
F451        F  0.22525412  0.30746539  0.17761907    -0.20000
H452        H  0.28842421  0.30861139  0.16413142     0.17700
H453        H  0.20080766  0.30186421  0.10438112     0.17800
F454        F  0.26273692  0.30269789  0.09053252    -0.20000
C455        C  0.36542277  0.35294424  0.05835644    -0.21400
C456        C  0.38385043  0.33829251  0.07264542    -0.09500
C457        C  0.41874239  0.34066900  0.06501705     0.29400
C458        C  0.43609175  0.36008414  0.04435136    -0.21400
C459        C  0.41938825  0.37795423  0.03118352    -0.09500
C460        C  0.38310715  0.37289898  0.03799254     0.29400
F461        F  0.36587655  0.38939889  0.02555948    -0.20000
H462        H  0.33832657  0.35120329  0.06344624     0.17700
H463        H  0.46420829  0.36389283  0.03948376     0.17800
F464        F  0.43722663  0.32611909  0.07786942    -0.20000
C465        C  0.01949458  0.30961622  0.17257624    -0.21400
C466        C  0.99563485  0.30803110  0.15507530    -0.09500
C467        C  0.00854951  0.30831573  0.13325573     0.29400
C468        C  0.04402465  0.30925344  0.12933810    -0.21400
C469        C  0.06702134  0.31005860  0.14704046    -0.09500
C470        C  0.05462446  0.31052444  0.16863360     0.29400
F471        F  0.07620313  0.31085339  0.18602543    -0.20000
H472        H  0.01074964  0.30957584  0.18954351     0.17700
H473        H  0.05328829  0.30871740  0.11257959     0.17800
F474        F  0.98646977  0.30632004  0.11582556    -0.20000
C475        C  0.34976229  0.24247317  0.21371675    -0.21400
C476        C  0.38963709  0.26981435  0.20997779    -0.09500
C477        C  0.41465183  0.27728509  0.22767111     0.29400
C478        C  0.40077923  0.25503404  0.24793771    -0.21400
C479        C  0.36173690  0.22478830  0.25102263    -0.09500
C480        C  0.33580664  0.22004522  0.23402533     0.29400
F481        F  0.29741505  0.19231167  0.23647839    -0.20000
H482        H  0.32981116  0.23649400  0.20044692     0.17700
H483        H  0.42134466  0.25996212  0.26073921     0.17800
F484        F  0.45304510  0.30492306  0.22508018    -0.20000
C485        C  0.25144415  0.42551282  0.17485486    -0.21400
C486        C  0.27716460  0.45066977  0.15735479    -0.09500
C487        C  0.26956802  0.43860203  0.13563983     0.29400
C488        C  0.23709796  0.40228511  0.13173260    -0.21400
C489        C  0.21164133  0.37770735  0.14929674    -0.09500
C490        C  0.21902203  0.38957632  0.17088546     0.29400
F491        F  0.19413035  0.36678034  0.18808207    -0.20000
H492        H  0.25607109  0.43373902  0.19174142     0.17700
H493        H  0.23109887  0.39380399  0.11493610     0.17800
F494        F  0.29253881  0.46229716  0.11808981    -0.20000
C495        C  0.37352607  0.09705035  0.23784282    -0.21400
C496        C  0.33799107  0.08034487  0.25027768    -0.09500
C497        C  0.30498206  0.04769036  0.24268693     0.29400
C498        C  0.30734088  0.03321435  0.22276126    -0.21400
C499        C  0.34233556  0.05106727  0.20978863    -0.09500
C500        C  0.37572858  0.08286885  0.21770758     0.29400
F501        F  0.41033618  0.10084546  0.20591597    -0.20000
H502        H  0.39945065  0.12217483  0.24325027     0.17700
H503        H  0.28121613  0.50858069  0.21728699     0.17800
F504        F  0.26990016  0.03052577  0.25395436    -0.20000
C505        C  0.02235156  0.19218353  0.11234682    -0.21400
C506        C  0.49517356  0.16798079  0.12953039    -0.09500
C507        C  0.00279514  0.17958148  0.15138100     0.29400
C508        C  0.03738635  0.21375689  0.15576167    -0.21400
C509        C  0.06450392  0.23696354  0.13849472    -0.09500
C510        C  0.05646361  0.22631270  0.11675109     0.29400
F511        F  0.08187183  0.24904314  0.09974029    -0.20000
H512        H  0.51744908  0.18469399  0.09534225     0.17700
H513        H  0.04320812  0.22200363  0.17261016     0.17800
F514        F  0.47726392  0.15793894  0.16854795    -0.20000
C515        C  0.44707111  0.09863255  0.05775021    -0.21400
C516        C  0.42277675  0.07202091  0.07528166    -0.09500
C517        C  0.39808474  0.03238150  0.07119057     0.29400
C518        C  0.39971982  0.01951312  0.05055654    -0.21400
C519        C  0.42530150  0.04570546  0.03349558    -0.09500
C520        C  0.44824637  0.08562416  0.03695038     0.29400
F521        F  0.97387711  0.11135040  0.02084005    -0.20000
H522        H  0.46618162  0.12932199  0.06032915     0.17700
H523        H  0.38210067  0.98851016  0.04815021     0.17800
F524        F  0.37406970  0.00535447  0.08739928    -0.20000
C525        C  0.13616070  0.21142716  0.12956552    -0.21400
C526        C  0.13373854  0.23179431  0.14706086    -0.09500
C527        C  0.12725971  0.21469884  0.16877449     0.29400
C528        C  0.12454910  0.17833056  0.17309012    -0.21400
C529        C  0.12840976  0.15815159  0.15584356    -0.09500
C530        C  0.13343396  0.17471316  0.13385730     0.29400
F531        F  0.13701163  0.15626981  0.11662532    -0.20000
H532        H  0.14052133  0.22415141  0.11268044     0.17700
H533        H  0.12013184  0.16632323  0.19013735     0.17800
F534        F  0.12399859  0.23356976  0.18589178    -0.20000
C535        C  0.19900100  0.07072841  0.23575672    -0.21400
C536        C  0.18919749  0.08714078  0.25287368    -0.09500
C537        C  0.16109127  0.09848922  0.24921099     0.29400
C538        C  0.14495168  0.09545911  0.22849679    -0.21400
C539        C  0.15626026  0.08095669  0.21104875    -0.09500
C540        C  0.18263508  0.06746690  0.21506147     0.29400
F541        F  0.19505095  0.05409581  0.19857106    -0.20000
H542        H  0.22078954  0.06204861  0.23807396     0.17700
H543        H  0.12472607  0.10609099  0.22581641     0.17800
F544        F  0.15158085  0.11558718  0.26496220    -0.20000
C545        C  0.14576888  0.43226028  0.11358558    -0.21400
C546        C  0.14188665  0.45252677  0.13078639    -0.09500
C547        C  0.14044290  0.43801148  0.15290374     0.29400
C548        C  0.14048039  0.40274767  0.15745332    -0.21400
C549        C  0.14240555  0.38194799  0.14009287    -0.09500
C550        C  0.14604151  0.39737281  0.11817643     0.29400
F551        F  0.14885547  0.37801257  0.10117739    -0.20000
H552        H  0.14762877  0.44287049  0.09642723     0.17700
H553        H  0.13818929  0.39122554  0.17445413     0.17800
F554        F  0.13732903  0.45678833  0.17009137    -0.20000
C555        C  0.05574033  0.52884763  0.05306921    -0.21400
C556        C  0.06092603  0.50768098  0.03682506    -0.09500
C557        C  0.08888162  0.99571815  0.04006154     0.29400
C558        C  0.10851771  0.00216695  0.05972122    -0.21400
C559        C  0.10076115  0.52028707  0.07677707    -0.09500
C560        C  0.07536559  0.53508450  0.07288749     0.29400
F561        F  0.06721780  0.55298013  0.08876130    -0.20000
H562        H  0.53484750  0.53876274  0.05101588     0.17700
H563        H  0.12849067  0.99113622  0.06205018     0.17800
F564        F  0.09581662  0.97585163  0.02488509    -0.20000
C565        C  0.11638748  0.01943192  0.09880776     0.80100
N566        N  0.11871140  0.54389044  0.11431654    -0.78200
C567        C  0.13020117  0.54004326  0.13501538     0.82500
N568        N  0.13850247  0.01101862  0.14029344    -0.78200
C569        C  0.13606587  0.98635074  0.12498114     0.82600
N570        N  0.12510601  0.99094854  0.10438366    -0.79900
C571        C  0.14416602  0.58496427  0.18839799     0.80100
N572        N  0.13849595  0.61540492  0.18259461    -0.78200
C573        C  0.13048032  0.62219018  0.16158446     0.82500
N574        N  0.12764188  0.59752208  0.14612666    -0.78200
C575        C  0.13288902  0.56652831  0.15174579     0.82600
N576        N  0.14161872  0.56063887  0.17283270    -0.79900
C577        C  0.42553850  0.58492859  0.09802997     0.80100
N578        N  0.39784588  0.56180799  0.11396917    -0.78200
C579        C  0.40081051  0.57272447  0.13492689     0.82500
N580        N  0.43202991  0.60716884  0.14008701    -0.78200
C581        C  0.46012325  0.63069000  0.12430418     0.82600
N582        N  0.45650744  0.61923382  0.10335414    -0.79900
C583        C  0.34263971  0.53710765  0.18784391     0.80100
N584        N  0.31261007  0.00215386  0.18259122    -0.78200
C585        C  0.31076467  0.98932211  0.16218618     0.82500
N586        N  0.33966744  0.01231626  0.14669564    -0.78200
C587        C  0.37010511  0.54742787  0.15178015     0.82600
N588        N  0.37138848  0.55968638  0.17230756    -0.79900
C589        C  0.40619064  0.78664779  0.18734186     0.80100
N590        N  0.38466441  0.79182906  0.17152941    -0.78200
C591        C  0.39929633  0.80368191  0.15027698     0.82500
N592        N  0.43537190  0.80947563  0.14479133    -0.78200
C593        C  0.45697685  0.80403609  0.16051911     0.82600
N594        N  0.44201543  0.79273765  0.18162806    -0.79900
C595        C  0.31834851  0.80952156  0.12304911     0.80100
N596        N  0.33270920  0.81950836  0.10177981    -0.78200
C597        C  0.36804223  0.82435001  0.09590177     0.82500
N598        N  0.38952948  0.81925067  0.11178145    -0.78200
C599        C  0.37569789  0.80915303  0.13320935     0.82600
N600        N  0.34016611  0.80451946  0.13880346    -0.79900
C601        C  0.17309390  0.80534162  0.14375369     0.02100
C602        C  0.17460990  0.84168938  0.14505515     0.02100
C603        C  0.13997321  0.84349816  0.14419184     0.02100
C604        C  0.10350673  0.80891291  0.14354332     0.02100
C605        C  0.10183526  0.77254356  0.14262219     0.02100
C606        C  0.13648337  0.77063378  0.14306739     0.02100
O607        O  0.19832776  0.60240223  0.29062393    -0.81000
O608        O  0.34968905  0.68245151  0.34780631    -0.65700
O609        O  0.27199970  0.65380708  0.30554362    -1.12300
C610        C  0.33481474  0.59991314  0.26957718     1.05900
O611        O  0.39945032  0.69000142  0.32644173    -0.78900
O612        O  0.37406403  0.70137824  0.28555765    -0.66500
Ni613      Ni  0.21910916  0.62959688  0.31704893     1.34900
C614        C  0.35016667  0.69552975  0.27032325     0.84600
O615        O  0.29483866  0.70047870  0.34062642    -0.79500
O616        O  0.23179743  0.65639981  0.34405408    -0.89700
C617        C  0.38515271  0.69228585  0.34476310     0.84200
O618        O  0.22252083  0.58696460  0.33176794    -0.67900
O619        O  0.36486875  0.63083398  0.27503888    -0.87200
C620        C  0.24590053  0.59196262  0.34726561     0.85000
C621        C  0.26147877  0.68703496  0.35008435     1.06600
H622        H  0.32034764  0.61283678  0.32272642     0.38400
O623        O  0.32544787  0.63543898  0.31298844    -1.09900
O624        O  0.31794180  0.66329682  0.26999464    -0.66500
Ni625      Ni  0.28642979  0.62023549  0.29186569     1.26300
O626        O  0.27834408  0.62393585  0.34808842    -0.66800
O627        O  0.30169924  0.58720448  0.27907933    -0.79100
C628        C  0.21272433  0.59831434  0.27281773     0.84400
O629        O  0.24740213  0.60518518  0.27090160    -0.66200
Ni630      Ni  0.37817979  0.65997164  0.30113450     1.27400
Ni631      Ni  0.31056985  0.66821500  0.32698888     1.26100
H632        H  0.27765669  0.67660010  0.29573109     0.38900
C633        C  0.27644104  0.97523089  0.49406867     0.80100
N634        N  0.26165119  0.96341496  0.51519251    -0.78200
C635        C  0.22603249  0.95739451  0.52125143     0.82500
N636        N  0.20455415  0.96349165  0.50570097    -0.78200
C637        C  0.21914450  0.97613016  0.48441948     0.82600
N638        N  0.25488218  0.48158721  0.47857322    -0.79900
C639        C  0.13742189  0.98077878  0.45731613     0.80100
N640        N  0.15232104  0.99279371  0.43623477    -0.78200
C641        C  0.18849506  0.99990419  0.43043740     0.82500
N642        N  0.21030872  0.99491023  0.44620220    -0.78200
C643        C  0.19567079  0.98236234  0.46746513     0.82600
N644        N  0.15933868  0.97575636  0.47299321    -0.79900
C645        C  0.16701036  0.70175377  0.52171433     0.80100
N646        N  0.13612815  0.66765760  0.51607399    -0.78200
C647        C  0.13395692  0.65528342  0.49545285     0.82500
N648        N  0.16349496  0.67776128  0.48019840    -0.78200
C649        C  0.19469621  0.71206541  0.48556335     0.82600
N650        N  0.19618005  0.72392700  0.50626745    -0.79900
C651        C  0.25297610  0.74928455  0.43240066     0.80100
N652        N  0.28141289  0.78513815  0.43750334    -0.78200
C653        C  0.28256117  0.79764480  0.45791557     0.82500
N654        N  0.25468130  0.77353202  0.47362705    -0.78200
C655        C  0.22557957  0.73753665  0.46872753     0.82600
N656        N  0.22485639  0.72553755  0.44810396    -0.79900
C657        C  0.46194634  0.75293023  0.52102338     0.80100
N658        N  0.46024482  0.72993453  0.50491366    -0.78200
C659        C  0.45352452  0.73796480  0.48381376     0.82500
N660        N  0.44952519  0.76987423  0.47870627    -0.78200
C661        C  0.45159242  0.79337473  0.49471225     0.82600
N662        N  0.45771444  0.78448159  0.51578786    -0.79900
C663        C  0.44908306  0.70081853  0.42887517     0.80100
N664        N  0.44898802  0.72294282  0.44506501    -0.78200
C665        C  0.95288151  0.71347817  0.46645968     0.82500
N666        N  0.95633577  0.68132226  0.47171876    -0.78200
C667        C  0.95651123  0.65900860  0.45561591     0.82600
N668        N  0.45285958  0.66900970  0.43429903    -0.79900
C669        C  0.42073422  0.94260711  0.47501695     0.02100
C670        C  0.42168734  0.97883252  0.47492701     0.02100
C671        C  0.45771442  0.51416112  0.47488252     0.02100
C672        C  0.49286325  0.51315102  0.47578897     0.02100
C673        C  0.49197969  0.97681569  0.47561757     0.02100
C674        C  0.45574048  0.94146337  0.47584735     0.02100
C675        C  0.26576128  0.86471427  0.76409574     0.80100
N676        N  0.26948285  0.83290765  0.76937597    -0.78200
C677        C  0.27694859  0.82457693  0.79022517     0.82500
N678        N  0.28086552  0.84900154  0.80614537    -0.78200
C679        C  0.27719556  0.88117896  0.80107617     0.82600
N680        N  0.26917735  0.88860961  0.78008691    -0.79900
C681        C  0.29490640  0.92748854  0.85445398     0.80100
N682        N  0.28854697  0.95756088  0.84883574    -0.78200
C683        C  0.27879289  0.96335412  0.82815003     0.82500
N684        N  0.27536239  0.93847278  0.81274276    -0.78200
C685        C  0.28120849  0.90780135  0.81809482     0.82600
N686        N  0.29150345  0.90263303  0.83893280    -0.79900
C687        C  0.06696175  0.91475019  0.76301108     0.80100
N688        N  0.09737592  0.94930928  0.76844001    -0.78200
C689        C  0.10016650  0.96126698  0.78916329     0.82500
N690        N  0.07176481  0.93779561  0.80477756    -0.78200
C691        C  0.04094464  0.90303749  0.79958602     0.82600
N692        N  0.03873916  0.89162539  0.77873220    -0.79900
C693        C  0.48834463  0.86359299  0.85405449     0.80100
N694        N  0.45695836  0.82954278  0.84877946    -0.78200
C695        C  0.45221502  0.81897630  0.82761793     0.82500
N696        N  0.47949846  0.84299182  0.81159044    -0.78200
C697        C  0.01112064  0.87710320  0.81670921     0.82600
N698        N  0.01524599  0.88720591  0.83787174    -0.79900
C699        C  0.09074990  0.63338503  0.82573129     0.80100
N700        N  0.06985000  0.63965807  0.80986974    -0.78200
C701        C  0.03472350  0.63612076  0.81528091     0.82500
N702        N  0.02047036  0.62604296  0.83667491    -0.78200
C703        C  0.04107371  0.61980691  0.85270538     0.82600
N704        N  0.07603383  0.62356563  0.84696997    -0.79900
C705        C  0.50570284  0.66183921  0.76127785     0.80100
N706        N  0.02691101  0.65561390  0.77695170    -0.78200
C707        C  0.51193384  0.64290502  0.79814228     0.82500
N708        N  0.47608076  0.63751118  0.80366555    -0.78200
C709        C  0.45489358  0.64409154  0.78816998     0.82600
N710        N  0.47004501  0.65608577  0.76711706    -0.79900
C711        C  0.23928428  0.64210462  0.80842605     0.02100
C712        C  0.27520088  0.67766171  0.80907000     0.02100
C713        C  0.31055865  0.67706680  0.80955933     0.02100
C714        C  0.31026457  0.64133784  0.80843295     0.02100
C715        C  0.27449325  0.60593532  0.80811682     0.02100
C716        C  0.23909878  0.60633330  0.80744489     0.02100
O717        O  0.42963051  0.54119759  0.99447495    -0.81000
O718        O  0.47305115  0.94652467  0.93359182    -0.65700
O719        O  0.42440233  0.97320948  0.97754132    -1.12300
C720        C  0.03478852  0.99458968  0.01788384     1.05900
O721        O  0.48423628  0.90812824  0.95701729    -0.78900
O722        O  0.46682347  0.90386269  0.00131574    -0.66500
Ni723      Ni  0.40472747  0.50806389  0.97031118     1.34900
C724        C  0.44346703  0.90844261  0.01350835     0.84600
O725        O  0.40452077  0.94295026  0.93633120    -0.79500
O726        O  0.37642717  0.97722059  0.94636469    -0.89700
C727        C  0.48190441  0.92017262  0.93739624     0.84200
O728        O  0.44536098  0.54469914  0.94938117    -0.67900
O729        O  0.03634079  0.97010957  0.00573017    -0.87200
C730        C  0.46902462  0.54050398  0.93716372     0.85000
C731        C  0.37901030  0.95339158  0.93407252     1.06600
H732        H  0.01254716  0.00054760  0.96740855     0.38400
O733        O  0.49050195  0.97659053  0.97393970    -1.09900
O734        O  0.44144037  0.93956804  0.01244521    -0.66500
Ni735      Ni  0.46711047  0.99011855  0.99652686     1.26300
O736        O  0.47282673  0.51036096  0.93893901    -0.66800
O737        O  0.01044937  0.00657929  0.01530050    -0.79100
C738        C  0.43233903  0.52933585  0.01413241     0.84400
O739        O  0.44191883  0.50350786  0.01788300    -0.66200
Ni740      Ni  0.50880604  0.94061994  0.98131757     1.27400
Ni741      Ni  0.44787219  0.95984189  0.95496388     1.26100
H742        H  0.40255590  0.94905906  0.98404881     0.38900
O743        O  0.01681671  0.76556819  0.62211169    -0.81000
O744        O  0.16474242  0.84794437  0.68115920    -0.65700
O745        O  0.08962569  0.81952803  0.63736985    -1.12300
C746        C  0.15540042  0.76712662  0.60224505     1.05900
O747        O  0.21541345  0.85330891  0.66177484    -0.78900
O748        O  0.19425977  0.86803449  0.61970451    -0.66500
Ni749      Ni  0.03609816  0.79460510  0.64807987     1.30400
C750        C  0.17136999  0.86341320  0.60402092     0.84600
O751        O  0.11070786  0.86610955  0.67221764    -0.79500
O752        O  0.04731958  0.82279384  0.67461447    -0.89700
C753        C  0.19996155  0.85638713  0.67950521     0.84200
O754        O  0.03879032  0.75246819  0.66399169    -0.67900
O755        O  0.18498054  0.79764307  0.60858000    -0.87200
C756        C  0.06210950  0.75762271  0.67949907     0.85000
C757        C  0.07695291  0.85324490  0.68093643     1.06600
H758        H  0.13646350  0.77789753  0.65555335     0.38400
O759        O  0.14263926  0.80099284  0.64586245    -1.09900
O760        O  0.13884103  0.83159191  0.60295844    -0.66500
Ni761      Ni  0.10541277  0.78709005  0.62368019     1.26300
O762        O  0.09422441  0.78979446  0.68041492    -0.66800
O763        O  0.12153092  0.75464164  0.61068566    -0.79100
C764        C  0.03231544  0.76374562  0.60406482     0.84400
O765        O  0.06789004  0.77359695  0.60192705    -0.66200
Ni766      Ni  0.19617919  0.82525738  0.63538941     1.27400
Ni767      Ni  0.12706957  0.83381651  0.65940866     1.26100
H768        H  0.09542773  0.84245029  0.62771367     0.38900
C769        C  0.39759909  0.65072434  0.77738709    -0.21400
C770        C  0.41694794  0.64134703  0.79401638    -0.09500
C771        C  0.40030023  0.63127008  0.81582528     0.29400
C772        C  0.36572959  0.63152305  0.82070910    -0.21400
C773        C  0.34732663  0.64169263  0.80399561    -0.09500
C774        C  0.36336069  0.65098999  0.78230435     0.29400
F775        F  0.34550190  0.65997501  0.76576622    -0.20000
H776        H  0.40907730  0.65830408  0.76041513     0.17700
H777        H  0.35327703  0.62379445  0.83748549     0.17800
F778        F  0.41728063  0.62133749  0.83243988    -0.20000
C779        C  0.06194214  0.70797291  0.73544772    -0.21400
C780        C  0.02236689  0.67941959  0.73866973    -0.09500
C781        C  0.99774951  0.67228741  0.72077146     0.29400
C782        C  0.01167284  0.69582397  0.70083502    -0.21400
C783        C  0.05031913  0.72715344  0.69835293    -0.09500
C784        C  0.07588775  0.73174358  0.71555944     0.29400
F785        F  0.11388316  0.76067349  0.71379730    -0.20000
H786        H  0.08155945  0.71387813  0.74888764     0.17700
H787        H  0.99142038  0.69096890  0.68785897     0.17800
F788        F  0.45964185  0.64371792  0.72290345    -0.20000
C789        C  0.15359621  0.63936438  0.83778104    -0.21400
C790        C  0.12921907  0.63685136  0.82039961    -0.09500
C791        C  0.14184420  0.63668887  0.79856778     0.29400
C792        C  0.17793826  0.63899441  0.79448003    -0.21400
C793        C  0.20189723  0.64160333  0.81201309    -0.09500
C794        C  0.18938606  0.64167457  0.83366247     0.29400
F795        F  0.21153649  0.64299551  0.85094872    -0.20000
H796        H  0.14495656  0.63940460  0.85475867     0.17700
H797        H  0.18703542  0.63829662  0.77770927     0.17800
F798        F  0.11901986  0.63319624  0.78127319    -0.20000
C799        C  0.04551623  0.59615991  0.89138927    -0.21400
C800        C  0.02494900  0.60637336  0.87599834    -0.09500
C801        C  0.98831864  0.60090415  0.88290246     0.29400
C802        C  0.97181235  0.58299881  0.90401841    -0.21400
C803        C  0.99117689  0.56985289  0.91850273    -0.09500
C804        C  0.02877632  0.57783318  0.91225302     0.29400
F805        F  0.54849966  0.56587335  0.92590352    -0.20000
H806        H  0.07396677  0.60043719  0.88694283     0.17700
H807        H  0.94254856  0.57665512  0.90835783     0.17800
F808        F  0.96741592  0.61084147  0.86898054    -0.20000
C809        C  0.39472956  0.75345771  0.83951755    -0.21400
C810        C  0.41694864  0.78208812  0.82229131    -0.09500
C811        C  0.40423870  0.77531321  0.80046487     0.29400
C812        C  0.36962868  0.74111743  0.79625910    -0.21400
C813        C  0.34754450  0.71311238  0.81361868    -0.09500
C814        C  0.36054499  0.71924654  0.83522731     0.29400
F815        F  0.33980538  0.69221920  0.85223746    -0.20000
H816        H  0.40376588  0.75749018  0.85642967     0.17700
H817        H  0.35989641  0.73651679  0.77949444     0.17800
F818        F  0.42454830  0.80199473  0.78325899    -0.20000
C819        C  0.46582077  0.85017808  0.89407690    -0.21400
C820        C  0.49140751  0.87633048  0.87679375    -0.09500
C821        C  0.01750900  0.91556078  0.88113235     0.29400
C822        C  0.01562865  0.92875826  0.90159330    -0.21400
C823        C  0.48854384  0.90321512  0.91824510    -0.09500
C824        C  0.46446437  0.86348178  0.91473273     0.29400
F825        F  0.43763744  0.83838576  0.93058219    -0.20000
H826        H  0.44569731  0.81976941  0.89135528     0.17700
H827        H  0.03432292  0.95955698  0.90416145     0.17800
F828        F  0.04325074  0.94203090  0.86530586    -0.20000
C829        C  0.16394683  0.52142205  0.77757147    -0.21400
C830        C  0.13483944  0.49908265  0.79428653    -0.09500
C831        C  0.14027576  0.51281700  0.81566297     0.29400
C832        C  0.17398875  0.54789466  0.81997327    -0.21400
C833        C  0.20264792  0.56975612  0.80313554    -0.09500
C834        C  0.19737561  0.55624143  0.78191745     0.29400
F835        F  0.22474659  0.57684024  0.76534071    -0.20000
H836        H  0.16109059  0.51197136  0.76097296     0.17700
H837        H  0.17795204  0.55786451  0.83648582     0.17800
F838        F  0.11407020  0.99179664  0.83274979    -0.20000
C839        C  0.03746363  0.85338166  0.71331438    -0.21400
C840        C  0.07248595  0.87206959  0.70026567    -0.09500
C841        C  0.10412512  0.90670801  0.70716906     0.29400
C842        C  0.10125460  0.92104049  0.72707621    -0.21400
C843        C  0.06705392  0.90121167  0.74076237    -0.09500
C844        C  0.03469309  0.86760854  0.73339428     0.29400
F845        F  0.00067287  0.84784676  0.74572133    -0.20000
H846        H  0.01254153  0.82674223  0.70843955     0.17700
H847        H  0.12666434  0.94708485  0.73211536     0.17800
F848        F  0.13846204  0.92624834  0.69513062    -0.20000
C849        C  0.26452862  0.55024146  0.83382403    -0.21400
C850        C  0.27357360  0.56810556  0.81224844    -0.09500
C851        C  0.28269575  0.55063111  0.79553289     0.29400
C852        C  0.28298823  0.51562943  0.80056304    -0.21400
C853        C  0.27484520  0.49811814  0.82237236    -0.09500
C854        C  0.26526083  0.51571043  0.83895109     0.29400
F855        F  0.25662498  0.49969586  0.86017286    -0.20000
H856        H  0.25749845  0.56357335  0.84683484     0.17700
H857        H  0.29083130  0.50294025  0.78756215     0.17800
F858        F  0.29193268  0.56770931  0.77455165    -0.20000
C859        C  0.33708961  0.91288142  0.87919039    -0.21400
C860        C  0.30990540  0.92557225  0.87652873    -0.09500
C861        C  0.30168042  0.94198001  0.89429421     0.29400
C862        C  0.32250841  0.94843744  0.91351678    -0.21400
C863        C  0.35221164  0.93899739  0.91551117    -0.09500
C864        C  0.35831410  0.91969493  0.89840816     0.29400
F865        F  0.38654275  0.90979683  0.89944195    -0.20000
H866        H  0.34397549  0.90022086  0.86576427     0.17700
H867        H  0.31652298  0.96265379  0.92644047     0.17800
F868        F  0.27466007  0.95347966  0.89276142    -0.20000
C869        C  0.28053089  0.77514896  0.81738319    -0.21400
C870        C  0.27866608  0.78799578  0.79538945    -0.09500
C871        C  0.27699646  0.76454856  0.77829205     0.29400
C872        C  0.27541311  0.72878831  0.78322072    -0.21400
C873        C  0.27633273  0.71572434  0.80507747    -0.09500
C874        C  0.27972876  0.73941886  0.82219594     0.29400
F875        F  0.28214026  0.72797928  0.84345027    -0.20000
H876        H  0.28227263  0.79253872  0.83088503     0.17700
H877        H  0.27376421  0.71118126  0.76983163     0.17800
F878        F  0.27704628  0.77593357  0.75666092    -0.20000
C879        C  0.25279142  0.85851456  0.70252875    -0.21400
C880        C  0.22295004  0.86753345  0.69965911    -0.09500
C881        C  0.21170240  0.88153278  0.71750356     0.29400
C882        C  0.22795457  0.88346566  0.73816001    -0.21400
C883        C  0.25512595  0.87090720  0.74145740    -0.09500
C884        C  0.26856087  0.85989593  0.72323049     0.29400
F885        F  0.29593160  0.84900109  0.72562450    -0.20000
H886        H  0.26214377  0.84781031  0.68913061     0.17700
H887        H  0.21737866  0.89232020  0.75191816     0.17800
F888        F  0.18369503  0.89159046  0.71531359    -0.20000
C889        C  0.47203119  0.57260400  0.45001149    -0.21400
C890        C  0.45914526  0.55240029  0.47095539    -0.09500
C891        C  0.44689164  0.56812680  0.48725988     0.29400
C892        C  0.44679885  0.60325852  0.48235835    -0.21400
C893        C  0.45886632  0.62312754  0.46114985    -0.09500
C894        C  0.47192536  0.60756050  0.44506273     0.29400
F895        F  0.48487216  0.62614351  0.42454847    -0.20000
H896        H  0.48175601  0.56087781  0.43733676     0.17700
H897        H  0.93654539  0.61449324  0.49503001     0.17800
F898        F  0.43492396  0.54952792  0.50781338    -0.20000
C899        C  0.45974483  0.85676209  0.50584308    -0.21400
C900        C  0.45094173  0.83041043  0.48932456    -0.09500
C901        C  0.44340536  0.84097657  0.46796873     0.29400
C902        C  0.44503476  0.87713448  0.46345582    -0.21400
C903        C  0.45431651  0.90323259  0.48004974    -0.09500
C904        C  0.46156913  0.89270928  0.50126539     0.29400
F905        F  0.47018108  0.91725405  0.51767393    -0.20000
H906        H  0.46577881  0.84990858  0.52242577     0.17700
H907        H  0.43923477  0.88490291  0.44701423     0.17800
F908        F  0.43457419  0.81665060  0.45144148    -0.20000
C909        C  0.50287258  0.73712663  0.54567995    -0.21400
C910        C  0.47387146  0.74742114  0.54331831    -0.09500
C911        C  0.46039149  0.75735151  0.56195142     0.29400
C912        C  0.47730932  0.75912724  0.58229942    -0.21400
C913        C  0.00871026  0.75221919  0.58423791    -0.09500
C914        C  0.02060387  0.73999440  0.56585197     0.29400
F915        F  0.05071072  0.73282718  0.56698158    -0.20000
H916        H  0.51381076  0.72957831  0.53149638     0.17700
H917        H  0.46765654  0.76870070  0.59612245     0.17800
F918        F  0.43207693  0.76706454  0.56026015    -0.20000
C919        C  0.32814781  0.84321163  0.48468981    -0.21400
C920        C  0.31539235  0.83631967  0.46296933    -0.09500
C921        C  0.33622564  0.86579563  0.44577662     0.29400
C922        C  0.36977653  0.90046740  0.45015081    -0.21400
C923        C  0.38339848  0.90646686  0.47158561    -0.09500
C924        C  0.36213712  0.87795162  0.48897562     0.29400
F925        F  0.37468503  0.88335258  0.50991371    -0.20000
H926        H  0.31270034  0.82108954  0.49820467     0.17700
H927        H  0.38579380  0.92246558  0.43665510     0.17800
F928        F  0.32446764  0.86111731  0.42464487    -0.20000
C929        C  0.05975143  0.56975598  0.46394476    -0.21400
C930        C  0.02956424  0.54945536  0.48020658    -0.09500
C931        C  0.03378680  0.56399802  0.50111416     0.29400
C932        C  0.06778148  0.59797143  0.50581667    -0.21400
C933        C  0.09845335  0.61866441  0.48973009    -0.09500
C934        C  0.09391808  0.60423433  0.46855581     0.29400
F935        F  0.12212845  0.62337465  0.45224444    -0.20000
H936        H  0.05665807  0.55903207  0.44765713     0.17700
H937        H  0.06982737  0.60809023  0.52219689     0.17800
F938        F  0.00492832  0.54502669  0.51711742    -0.20000
C939        C  0.13299446  0.69581444  0.55795034    -0.21400
C940        C  0.16658206  0.71618201  0.54375733    -0.09500
C941        C  0.19802418  0.75140156  0.55033398     0.29400
C942        C  0.19475493  0.76676644  0.56987677    -0.21400
C943        C  0.16023925  0.74756802  0.58333119    -0.09500
C944        C  0.12969600  0.71123809  0.57742832     0.29400
F945        F  0.09614311  0.69089982  0.59013111    -0.20000
H946        H  0.10842606  0.66838876  0.55365076     0.17700
H947        H  0.21889582  0.79462185  0.57401528     0.17800
F948        F  0.23161902  0.77177019  0.53768382    -0.20000
C949        C  0.09014802  0.98313165  0.48419015    -0.21400
C950        C  0.09870501  0.97601442  0.46299437    -0.09500
C951        C  0.07098365  0.96734518  0.44663500     0.29400
C952        C  0.03641857  0.96727780  0.45118539    -0.21400
C953        C  0.02858684  0.97580573  0.47202292    -0.09500
C954        C  0.05538740  0.98319436  0.48867978     0.29400
F955        F  0.04812156  0.99082425  0.50912176    -0.20000
H956        H  0.11092975  0.98993854  0.49705886     0.17700
H957        H  0.01578148  0.96106392  0.43826417     0.17800
F958        F  0.07719689  0.95897533  0.42615008    -0.20000
C959        C  0.36637206  0.48862219  0.46191023    -0.21400
C960        C  0.38477094  0.97890337  0.47892530    -0.09500
C961        C  0.36810080  0.96909971  0.50044919     0.29400
C962        C  0.33359176  0.96885237  0.50504177    -0.21400
C963        C  0.31442550  0.97809864  0.48824759    -0.09500
C964        C  0.33131196  0.48819440  0.46645293     0.29400
F965        F  0.31412311  0.49731982  0.44960897    -0.20000
H966        H  0.37911504  0.49627627  0.44519936     0.17700
H967        H  0.32181748  0.96101845  0.52195203     0.17800
F968        F  0.38571462  0.96026513  0.51719169    -0.20000
C969        C  0.23581515  0.94677204  0.56130286    -0.21400
C970        C  0.21005650  0.94003278  0.54405095    -0.09500
C971        C  0.17033039  0.91232853  0.54820323     0.29400
C972        C  0.15750537  0.88949461  0.56844438    -0.21400
C973        C  0.18384775  0.89391499  0.58507560    -0.09500
C974        C  0.22294797  0.92429969  0.58165405     0.29400
F975        F  0.24945603  0.93065120  0.59728076    -0.20000
H976        H  0.26652684  0.96831349  0.55865422     0.17700
H977        H  0.12712779  0.86674608  0.57058192     0.17800
F978        F  0.14441954  0.90475751  0.53208450    -0.20000
C979        C  0.45185057  0.69315207  0.38860775    -0.21400
C980        C  0.44083645  0.70816967  0.40590015    -0.09500
C981        C  0.41732802  0.72498517  0.40136727     0.29400
C982        C  0.40181030  0.72278330  0.38056419    -0.21400
C983        C  0.40994095  0.70443837  0.36393471    -0.09500
C984        C  0.43669636  0.69138848  0.36772808     0.29400
F985        F  0.44493291  0.67310247  0.35211411    -0.20000
H986        H  0.47033052  0.68050858  0.39162264     0.17700
H987        H  0.38139099  0.73318168  0.37788649     0.17800
F988        F  0.40617536  0.74009360  0.41750117    -0.20000
C989        C  0.29034939  0.73883113  0.37688519    -0.21400
C990        C  0.25762121  0.70548810  0.36978964    -0.09500
C991        C  0.22239800  0.68848593  0.38271379     0.29400
C992        C  0.22089981  0.70325932  0.40282374    -0.21400
C993        C  0.25407802  0.73568397  0.41029953    -0.09500
C994        C  0.28865696  0.75403960  0.39674362     0.29400
F995        F  0.32151265  0.78581944  0.40294615    -0.20000
H996        H  0.31778759  0.75276421  0.36731307     0.17700
H997        H  0.19373895  0.68897170  0.41267067     0.17800
F998        F  0.18954417  0.65692443  0.37633024    -0.20000
C999        C  0.24474635  0.54319093  0.40367281    -0.21400
C1000       C  0.20465921  0.51684193  0.40753026    -0.09500
C1001       C  0.17963316  0.51065485  0.38990683     0.29400
C1002       C  0.19392004  0.53293064  0.36963156    -0.21400
C1003       C  0.23338231  0.56202657  0.36642982    -0.09500
C1004       C  0.25907797  0.56566793  0.38338523     0.29400
F1005       F  0.29775734  0.59242271  0.38090791    -0.20000
H1006       H  0.26479251  0.04837443  0.41693622     0.17700
H1007       H  0.17344479  0.52898696  0.35692103     0.17800
F1008       F  0.14091476  0.48417651  0.39250775    -0.20000
C1009       C  0.26947591  0.80709326  0.15094675    -0.21400
C1010       C  0.28005340  0.80603263  0.12885413    -0.09500
C1011       C  0.25421498  0.80324634  0.11218554     0.29400
C1012       C  0.21950360  0.80244590  0.11749056    -0.21400
C1013       C  0.20952597  0.80439570  0.13936592    -0.09500
C1014       C  0.23456759  0.80647001  0.15617633     0.29400
F1015       F  0.22545322  0.80825329  0.17751937    -0.20000
H1016       H  0.28861572  0.80928870  0.16413572     0.17700
H1017       H  0.20038800  0.80077448  0.10437234     0.17800
F1018       F  0.26225530  0.80131869  0.09065166    -0.20000
C1019       C  0.36552958  0.85314188  0.05842498    -0.21400
C1020       C  0.38402668  0.83865399  0.07277042    -0.09500
C1021       C  0.41896542  0.84108458  0.06518606     0.29400
C1022       C  0.43628947  0.86038962  0.04450178    -0.21400
C1023       C  0.41950707  0.87808541  0.03126276    -0.09500
C1024       C  0.38317429  0.87296119  0.03802559     0.29400
F1025       F  0.36584311  0.88924526  0.02550040    -0.20000
H1026       H  0.33839347  0.85134491  0.06348521     0.17700
H1027       H  0.46444145  0.86425070  0.03966822     0.17800
F1028       F  0.43750948  0.82667566  0.07809278    -0.20000
C1029       C  0.01949633  0.80951172  0.17262462    -0.21400
C1030       C  0.99571706  0.80824194  0.15514482    -0.09500
C1031       C  0.00864342  0.80871378  0.13329533     0.29400
C1032       C  0.04407920  0.80959889  0.12932364    -0.21400
C1033       C  0.06701137  0.81013328  0.14700193    -0.09500
C1034       C  0.05457718  0.81034830  0.16862782     0.29400
F1035       F  0.07610032  0.81041744  0.18599285    -0.20000
H1036       H  0.01073765  0.80930124  0.18961422     0.17700
H1037       H  0.05336647  0.80924643  0.11253922     0.17800
F1038       F  0.98662497  0.80697984  0.11588016    -0.20000
C1039       C  0.34993685  0.74280320  0.21375328    -0.21400
C1040       C  0.38979716  0.77024731  0.21007967    -0.09500
C1041       C  0.41474216  0.77771805  0.22780521     0.29400
C1042       C  0.40082016  0.75539122  0.24804814    -0.21400
C1043       C  0.36180449  0.72505156  0.25106826    -0.09500
C1044       C  0.33593667  0.72028127  0.23402943     0.29400
F1045       F  0.29757623  0.69242950  0.23640364    -0.20000
H1046       H  0.33004310  0.73681046  0.20045133     0.17700
H1047       H  0.42133557  0.76033937  0.26088180     0.17800
F1048       F  0.45311668  0.80543067  0.22526658    -0.20000
C1049       C  0.25093294  0.92592005  0.17472948    -0.21400
C1050       C  0.27710175  0.95072618  0.15729166    -0.09500
C1051       C  0.26994649  0.93829214  0.13563722     0.29400
C1052       C  0.23748937  0.90195657  0.13173385    -0.21400
C1053       C  0.21159988  0.87772782  0.14923566    -0.09500
C1054       C  0.21853168  0.88997482  0.17076043     0.29400
F1055       F  0.19323204  0.86753143  0.18788635    -0.20000
H1056       H  0.25518354  0.93442324  0.19156633     0.17700
H1057       H  0.23184719  0.89319370  0.11497396     0.17800
F1058       F  0.29337723  0.96162014  0.11812779    -0.20000
C1059       C  0.37349321  0.59736449  0.23776761    -0.21400
C1060       C  0.33802285  0.58053717  0.25027576    -0.09500
C1061       C  0.30506747  0.54772409  0.24276366     0.29400
C1062       C  0.30741472  0.53319099  0.22285246    -0.21400
C1063       C  0.34233418  0.55115776  0.20980672    -0.09500
C1064       C  0.37567496  0.58314471  0.21764117     0.29400
F1065       F  0.41020632  0.60128500  0.20576989    -0.20000
H1066       H  0.39937282  0.62262048  0.24310610     0.17700
H1067       H  0.28110101  0.00874506  0.21712664     0.17800
F1068       F  0.27004180  0.53044292  0.25409836    -0.20000
C1069       C  0.02172539  0.69270870  0.11234470    -0.21400
C1070       C  0.49512115  0.66799991  0.12962670    -0.09500
C1071       C  0.00323780  0.67916814  0.15153092     0.29400
C1072       C  0.03782743  0.71338667  0.15585345    -0.21400
C1073       C  0.06441222  0.73705790  0.13847576    -0.09500
C1074       C  0.05582068  0.72687974  0.11669585     0.29400
F1075       F  0.08070251  0.75007965  0.09960149    -0.20000
H1076       H  0.51640135  0.68555445  0.09530340     0.17700
H1077       H  0.04408168  0.72129031  0.17273569     0.17800
F1078       F  0.47823017  0.65702122  0.16879741    -0.20000
C1079       C  0.44810655  0.59849339  0.05799442    -0.21400
C1080       C  0.42316762  0.57198649  0.07537338    -0.09500
C1081       C  0.39782842  0.53257086  0.07108973     0.29400
C1082       C  0.39934769  0.51978380  0.05041000    -0.21400
C1083       C  0.42549330  0.54584536  0.03350729    -0.09500
C1084       C  0.44921295  0.58556772  0.03716577     0.29400
F1085       F  0.97547644  0.61110490  0.02122926    -0.20000
H1086       H  0.46776361  0.62901046  0.06071337     0.17700
H1087       H  0.38118201  0.48890673  0.04784975     0.17800
F1088       F  0.37319973  0.50563959  0.08714365    -0.20000
C1089       C  0.13523174  0.71102697  0.12943050    -0.21400
C1090       C  0.13363851  0.73182491  0.14692946    -0.09500
C1091       C  0.12793219  0.71515183  0.16869642     0.29400
C1092       C  0.12519390  0.67878718  0.17305443    -0.21400
C1093       C  0.12829385  0.65818673  0.15579796    -0.09500
C1094       C  0.13250336  0.67431300  0.13376606     0.29400
F1095       F  0.13522551  0.65542328  0.11651508    -0.20000
H1096       H  0.13895885  0.72341937  0.11250827     0.17700
H1097       H  0.12137208  0.66713089  0.19014329     0.17800
F1098       F  0.12541821  0.73442083  0.18582207    -0.20000
C1099       C  0.19905628  0.57098927  0.23575737    -0.21400
C1100       C  0.18924629  0.58740965  0.25286758    -0.09500
C1101       C  0.16110970  0.59871709  0.24920399     0.29400
C1102       C  0.14497809  0.59568044  0.22848702    -0.21400
C1103       C  0.15629273  0.58116807  0.21104719    -0.09500
C1104       C  0.18267263  0.56768929  0.21506637     0.29400
F1105       F  0.19506198  0.55427538  0.19858595    -0.20000
H1106       H  0.22085173  0.56231915  0.23807842     0.17700
H1107       H  0.12473468  0.60628887  0.22580216     0.17800
F1108       F  0.15153780  0.61575404  0.26496328    -0.20000
C1109       C  0.14613961  0.93249903  0.11350603    -0.21400
C1110       C  0.14192402  0.95257834  0.13069934    -0.09500
C1111       C  0.14002599  0.93783020  0.15281361     0.29400
C1112       C  0.14004800  0.90256649  0.15735890    -0.21400
C1113       C  0.14239685  0.88199177  0.13999953    -0.09500
C1114       C  0.14638101  0.89759589  0.11809488     0.29400
F1115       F  0.14946422  0.87837460  0.10110172    -0.20000
H1116       H  0.14828682  0.94327158  0.09635454     0.17700
H1117       H  0.13740735  0.89086537  0.17435084     0.17800
F1118       F  0.13643936  0.95635822  0.16999075    -0.20000
C1119       C  0.05588499  0.02886357  0.05299524    -0.21400
C1120       C  0.06114761  0.00777754  0.03673223    -0.09500
C1121       C  0.08857388  0.49551789  0.04017571     0.29400
C1122       C  0.10815516  0.50188596  0.05984903    -0.21400
C1123       C  0.10104757  0.02048947  0.07666658    -0.09500
C1124       C  0.07551684  0.03512613  0.07280871     0.29400
F1125       F  0.06720834  0.05284003  0.08872041    -0.20000
H1126       H  0.53491541  0.03868290  0.05096398     0.17700
H1127       H  0.12805404  0.49076735  0.06219116     0.17800
F1128       F  0.09550300  0.47566062  0.02499171    -0.20000
C1129       C  0.61611957  0.51924096  0.09891460     0.80100
N1130       N  0.61892466  0.04403312  0.11423054    -0.78200
C1131       C  0.63033129  0.04010811  0.13494389     0.82500
N1132       N  0.63842651  0.51098025  0.14037423    -0.78200
C1133       C  0.63593667  0.48625873  0.12507829     0.82600
N1134       N  0.62486997  0.49078104  0.10449627    -0.79900
C1135       C  0.64417275  0.08482342  0.18839542     0.80100
N1136       N  0.63852466  0.11529095  0.18262049    -0.78200
C1137       C  0.63056882  0.12214646  0.16160935     0.82500
N1138       N  0.62775634  0.09753463  0.14612410    -0.78200
C1139       C  0.63297194  0.06651790  0.15171191     0.82600
N1140       N  0.64165183  0.06055035  0.17280049    -0.79900
C1141       C  0.92523525  0.08507616  0.09791312     0.80100
N1142       N  0.89760697  0.06196877  0.11388098    -0.78200
C1143       C  0.90070142  0.07283994  0.13485076     0.82500
N1144       N  0.93200053  0.10723513  0.13999720    -0.78200
C1145       C  0.96004629  0.13076114  0.12418766     0.82600
N1146       N  0.95629349  0.11934607  0.10321641    -0.79900
C1147       C  0.84265756  0.03708380  0.18781403     0.80100
N1148       N  0.81259704  0.50215519  0.18263390    -0.78200
C1149       C  0.81079125  0.48928230  0.16224090     0.82500
N1150       N  0.83971575  0.51223949  0.14675295    -0.78200
C1151       C  0.87006257  0.04750115  0.15172910     0.82600
N1152       N  0.87138966  0.05970867  0.17227614    -0.79900
C1153       C  0.90596790  0.28613545  0.18721674     0.80100
N1154       N  0.88441414  0.29124754  0.17139355    -0.78200
C1155       C  0.89905987  0.30311752  0.15014110     0.82500
N1156       N  0.93518061  0.30901072  0.14467043    -0.78200
C1157       C  0.95681299  0.30365405  0.16041301     0.82600
N1158       N  0.94183306  0.29232814  0.18151470    -0.79900
C1159       C  0.81834075  0.30947736  0.12296553     0.80100
N1160       N  0.83266323  0.31937584  0.10169005    -0.78200
C1161       C  0.86787501  0.32395762  0.09577711     0.82500
N1162       N  0.88929216  0.31868018  0.11163611    -0.78200
C1163       C  0.87549367  0.30865578  0.13307501     0.82600
N1164       N  0.84007911  0.30428318  0.13869728    -0.79900
C1165       C  0.67314848  0.30532826  0.14388949     0.02100
C1166       C  0.67463573  0.34166112  0.14516341     0.02100
C1167       C  0.63999349  0.34345215  0.14429820     0.02100
C1168       C  0.60353325  0.30884124  0.14364451     0.02100
C1169       C  0.60188587  0.27247231  0.14272428     0.02100
C1170       C  0.63655630  0.27059607  0.14322049     0.02100
O1171       O  0.69825503  0.10203223  0.29064532    -0.81000
O1172       O  0.84969116  0.18232773  0.34775937    -0.65700
O1173       O  0.77194237  0.15356439  0.30552524    -1.12300
C1174       C  0.83478841  0.09970776  0.26957996     1.05900
O1175       O  0.89943351  0.18985416  0.32638719    -0.78900
O1176       O  0.87402682  0.20117806  0.28551958    -0.66500
Ni1177     Ni  0.71905596  0.12932615  0.31703853     1.34900
C1178       C  0.85011224  0.19530428  0.27029314     0.84600
O1179       O  0.79481278  0.20032263  0.34055132    -0.79500
O1180       O  0.73176679  0.15624098  0.34399699    -0.89700
C1181       C  0.88515205  0.19215211  0.34470652     0.84200
O1182       O  0.72250040  0.08674666  0.33181476    -0.67900
O1183       O  0.86483922  0.13063439  0.27503056    -0.87200
C1184       C  0.74590269  0.09179680  0.34730706     0.85000
C1185       C  0.76144068  0.18693141  0.34998020     1.06600
H1186       H  0.82033247  0.11265627  0.32272668     0.38400
O1187       O  0.82542218  0.13524378  0.31297867    -1.09900
O1188       O  0.81788781  0.16306728  0.26998222    -0.66500
Ni1189     Ni  0.78639450  0.12001208  0.29186044     1.26300
O1190       O  0.77834246  0.12379018  0.34809861    -0.66800
O1191       O  0.80167870  0.08699014  0.27908907    -0.79100
C1192       C  0.71267303  0.09802075  0.27282386     0.84400
O1193       O  0.74737016  0.10495399  0.27089496    -0.66200
Ni1194     Ni  0.87815259  0.15978941  0.30110851     1.27400
Ni1195     Ni  0.81053871  0.16802936  0.32695680     1.26100
H1196       H  0.77757381  0.17634228  0.29570477     0.38900
C1197       C  0.77637186  0.47527741  0.49400066     0.80100
N1198       N  0.76161742  0.46357636  0.51513561    -0.78200
C1199       C  0.72601239  0.45759677  0.52119483     0.82500
N1200       N  0.70450656  0.46360974  0.50562542    -0.78200
C1201       C  0.71905768  0.47612781  0.48432783     0.82600
N1202       N  0.75497715  0.98161873  0.47865891    -0.79900
C1203       C  0.63729314  0.48064535  0.45718377     0.80100
N1204       N  0.65222447  0.49271812  0.43611599    -0.78200
C1205       C  0.68842300  0.49989621  0.43033199     0.82500
N1206       N  0.71023803  0.49491140  0.44610137    -0.78200
C1207       C  0.69556841  0.48230565  0.46735692     0.82600
N1208       N  0.65920653  0.47563660  0.47286937    -0.79900
C1209       C  0.66705585  0.20213942  0.52143885     0.80100
N1210       N  0.63622707  0.16794810  0.51586037    -0.78200
C1211       C  0.63399645  0.15551665  0.49524884     0.82500
N1212       N  0.66341840  0.17804379  0.47993731    -0.78200
C1213       C  0.69456177  0.21244628  0.48524343     0.82600
N1214       N  0.69610490  0.22435290  0.50593929    -0.79900
C1215       C  0.75280269  0.24961052  0.43207057     0.80100
N1216       N  0.78126506  0.28545360  0.43716608    -0.78200
C1217       C  0.78240990  0.29799061  0.45756757     0.82500
N1218       N  0.75450278  0.27391293  0.47327374    -0.78200
C1219       C  0.72538246  0.23792423  0.46838203     0.82600
N1220       N  0.72466221  0.22589357  0.44777000    -0.79900
C1221       C  0.96181605  0.25293136  0.52084362     0.80100
N1222       N  0.96026302  0.22998408  0.50474248    -0.78200
C1223       C  0.95368002  0.23803857  0.48361947     0.82500
N1224       N  0.94967245  0.26993836  0.47847508    -0.78200
C1225       C  0.95159203  0.29339932  0.49447135     0.82600
N1226       N  0.95756941  0.28446731  0.51557500    -0.79900
C1227       C  0.94943439  0.20090073  0.42871162     0.80100
N1228       N  0.94932693  0.22303480  0.44488725    -0.78200
C1229       C  0.45318293  0.21358250  0.46628792     0.82500
N1230       N  0.45661675  0.18141678  0.47156830    -0.78200
C1231       C  0.45681606  0.15909190  0.45547409     0.82600
N1232       N  0.95319178  0.16908564  0.43414791    -0.79900
C1233       C  0.92070236  0.44267040  0.47486910     0.02100
C1234       C  0.92163998  0.47887522  0.47489530     0.02100
C1235       C  0.95776940  0.01412974  0.47486685     0.02100
C1236       C  0.99291696  0.01311861  0.47583837     0.02100
C1237       C  0.99194026  0.47686687  0.47544563     0.02100
C1238       C  0.95570774  0.44151805  0.47562978     0.02100
C1239       C  0.76579704  0.36474331  0.76404837     0.80100
N1240       N  0.76938511  0.33286370  0.76932473    -0.78200
C1241       C  0.77680233  0.32448690  0.79017389     0.82500
N1242       N  0.78084771  0.34895856  0.80609179    -0.78200
C1243       C  0.77733036  0.38122424  0.80101970     0.82600
N1244       N  0.76931472  0.38868045  0.78003522    -0.79900
C1245       C  0.79526103  0.42760792  0.85437892     0.80100
N1246       N  0.78883727  0.45764386  0.84879006    -0.78200
C1247       C  0.77898618  0.46339477  0.82812514     0.82500
N1248       N  0.77552941  0.43851730  0.81270996    -0.78200
C1249       C  0.78144231  0.40788211  0.81803621     0.82600
N1250       N  0.79183125  0.40274886  0.83885440    -0.79900
C1251       C  0.56664897  0.41522370  0.76274673     0.80100
N1252       N  0.59715840  0.44970988  0.76820986    -0.78200
C1253       C  0.59994227  0.46164620  0.78894393     0.82500
N1254       N  0.57144824  0.43821962  0.80452500    -0.78200
C1255       C  0.54054453  0.40354404  0.79929908     0.82600
N1256       N  0.53834486  0.39216056  0.77844079    -0.79900
C1257       C  0.98797721  0.36405161  0.85376604     0.80100
N1258       N  0.95665223  0.32993665  0.84851120    -0.78200
C1259       C  0.95190755  0.31934700  0.82735166     0.82500
N1260       N  0.97913987  0.34341422  0.81130895    -0.78200
C1261       C  0.51070172  0.37759247  0.81641546     0.82600
N1262       N  0.51482222  0.38770066  0.83757496    -0.79900
C1263       C  0.59062553  0.13331919  0.82568753     0.80100
N1264       N  0.56985581  0.13983583  0.80984103    -0.78200
C1265       C  0.53477829  0.13641094  0.81525192     0.82500
N1266       N  0.52044334  0.12620452  0.83662965    -0.78200
C1267       C  0.54092138  0.11972855  0.85264312     0.82600
N1268       N  0.57583074  0.12337683  0.84690749    -0.79900
C1269       C  0.00585562  0.16225008  0.76124075     0.80100
N1270       N  0.52704831  0.15599853  0.77692149    -0.78200
C1271       C  0.01208072  0.14335959  0.79811622     0.82500
N1272       N  0.97627526  0.13808174  0.80364557    -0.78200
C1273       C  0.95513009  0.14471800  0.78814805     0.82600
N1274       N  0.97026179  0.15663299  0.76709293    -0.79900
C1275       C  0.73911898  0.14195766  0.80836323     0.02100
C1276       C  0.77496988  0.17757113  0.80897111     0.02100
C1277       C  0.81040671  0.17713189  0.80938703     0.02100
C1278       C  0.81023253  0.14146663  0.80824441     0.02100
C1279       C  0.77451989  0.10599303  0.80797186     0.02100
C1280       C  0.73906486  0.10626713  0.80737092     0.02100
O1281       O  0.92968052  0.04119013  0.99444616    -0.81000
O1282       O  0.97289177  0.44652162  0.93360759    -0.65700
O1283       O  0.92433302  0.47320064  0.97758381    -1.12300
C1284       C  0.53460627  0.49454320  0.01795820     1.05900
O1285       O  0.98452991  0.40829499  0.95690368    -0.78900
O1286       O  0.96660452  0.40374545  0.00117598    -0.66500
Ni1287     Ni  0.90472020  0.00799906  0.97030982     1.34900
C1288       C  0.94337622  0.40837596  0.01345295     0.84600
O1289       O  0.90438065  0.44281355  0.93644858    -0.79500
O1290       O  0.87651059  0.47737530  0.94631302    -0.89700
C1291       C  0.98191517  0.42028406  0.93732053     0.84200
O1292       O  0.94525467  0.04459207  0.94931733    -0.67900
O1293       O  0.53604825  0.46994799  0.00585461    -0.87200
C1294       C  0.96902072  0.04048424  0.93713566     0.85000
C1295       C  0.87901303  0.45341299  0.93409528     1.06600
H1296       H  0.51248755  0.50057868  0.96739845     0.38400
O1297       O  0.99046448  0.47662140  0.97394291    -1.09900
O1298       O  0.94148585  0.43958111  0.01248402    -0.66500
Ni1299     Ni  0.96706321  0.49013721  0.99654423     1.26300
O1300       O  0.97298056  0.01043591  0.93894898    -0.66800
O1301       O  0.51041551  0.50669478  0.01529923    -0.79100
C1302       C  0.93233195  0.02930701  0.01411089     0.84400
O1303       O  0.94198134  0.00352570  0.01786059    -0.66200
Ni1304     Ni  0.00877302  0.44063995  0.98132454     1.27400
Ni1305     Ni  0.94777642  0.45980635  0.95501320     1.26100
H1306       H  0.90248079  0.44907114  0.98410842     0.38900
O1307       O  0.51680455  0.26568455  0.62195375    -0.81000
O1308       O  0.66456968  0.34765114  0.68110908    -0.65700
O1309       O  0.58957775  0.31956637  0.63728826    -1.12300
C1310       C  0.65554547  0.26749853  0.60199019     1.05900
O1311       O  0.71534997  0.35326732  0.66173171    -0.78900
O1312       O  0.69429864  0.36826665  0.61965984    -0.66500
Ni1313     Ni  0.53603377  0.29453697  0.64799736     1.30400
C1314       C  0.67142372  0.36374711  0.60397952     0.84600
O1315       O  0.61058443  0.36588325  0.67223604    -0.79500
O1316       O  0.54719883  0.32256460  0.67461080    -0.89700
C1317       C  0.69980655  0.35616823  0.67948121     0.84200
O1318       O  0.53873013  0.25231068  0.66380338    -0.67900
O1319       O  0.68510512  0.29797618  0.60838021    -0.87200
C1320       C  0.56204468  0.25740024  0.67930395     0.85000
C1321       C  0.57682272  0.35302483  0.68094090     1.06600
H1322       H  0.63643596  0.27786749  0.65532076     0.38400
O1323       O  0.64262260  0.30102754  0.64568741    -1.09900
O1324       O  0.63889393  0.33194464  0.60286465    -0.66500
Ni1325     Ni  0.60543940  0.28728453  0.62348699     1.26300
O1326       O  0.59414238  0.28956483  0.68025612    -0.66800
O1327       O  0.62163901  0.25498970  0.61038541    -0.79100
C1328       C  0.53232783  0.26398797  0.60388029     0.84400
O1329       O  0.56792818  0.27392247  0.60172417    -0.66200
Ni1330     Ni  0.69620436  0.32540624  0.63526136     1.27400
Ni1331     Ni  0.62698437  0.33370494  0.65933449     1.26100
H1332       H  0.59537353  0.34254849  0.62769017     0.38900
C1333       C  0.89790947  0.15142183  0.77731914    -0.21400
C1334       C  0.91717089  0.14194888  0.79396118    -0.09500
C1335       C  0.90036473  0.13164497  0.81573305     0.29400
C1336       C  0.86569874  0.13173342  0.82056786    -0.21400
C1337       C  0.84735569  0.14194924  0.80384038    -0.09500
C1338       C  0.86356355  0.15150104  0.78218494     0.29400
F1339       F  0.84579229  0.16057796  0.76563385    -0.20000
H1340       H  0.90952297  0.15919608  0.76037435     0.17700
H1341       H  0.85312151  0.12383685  0.83731750     0.17800
F1342       F  0.91726399  0.12162184  0.83235460    -0.20000
C1343       C  0.56205437  0.20778874  0.73520747    -0.21400
C1344       C  0.52240101  0.17957228  0.73858421    -0.09500
C1345       C  0.49762903  0.17250495  0.72076408     0.29400
C1346       C  0.51150159  0.19585463  0.70076748    -0.21400
C1347       C  0.55025666  0.22691365  0.69814245    -0.09500
C1348       C  0.57595938  0.23134818  0.71524676     0.29400
F1349       F  0.61407594  0.25995196  0.71330985    -0.20000
H1350       H  0.58179666  0.21361170  0.74857473     0.17700
H1351       H  0.49114266  0.19111873  0.68786901     0.17800
F1352       F  0.95942643  0.14419994  0.72302435    -0.20000
C1353       C  0.65322157  0.13872138  0.83776988    -0.21400
C1354       C  0.62903997  0.13665761  0.82036425    -0.09500
C1355       C  0.64181417  0.13683946  0.79851178     0.29400
C1356       C  0.67789050  0.13910897  0.79442373    -0.21400
C1357       C  0.70167357  0.14132182  0.81197832    -0.09500
C1358       C  0.68898544  0.14097818  0.83365142     0.29400
F1359       F  0.71096088  0.14189884  0.85095086    -0.20000
H1360       H  0.64446039  0.13847119  0.85476482     0.17700
H1361       H  0.68712550  0.13872607  0.77763120     0.17800
F1362       F  0.61916761  0.13375606  0.78118837    -0.20000
C1363       C  0.54541116  0.09617293  0.89133479    -0.21400
C1364       C  0.52475799  0.10623177  0.87592393    -0.09500
C1365       C  0.48805325  0.10059884  0.88280692     0.29400
C1366       C  0.47160531  0.08275550  0.90394040    -0.21400
C1367       C  0.49108988  0.06980859  0.91845748    -0.09500
C1368       C  0.52872630  0.07789730  0.91221279     0.29400
F1369       F  0.04854559  0.06608438  0.92587821    -0.20000
H1370       H  0.57390879  0.10055813  0.88690127     0.17700
H1371       H  0.44229724  0.07629023  0.90826992     0.17800
F1372       F  0.46701910  0.11029241  0.86884874    -0.20000
C1373       C  0.89435509  0.25388616  0.83931614    -0.21400
C1374       C  0.91668948  0.28236972  0.82204957    -0.09500
C1375       C  0.90412743  0.27536160  0.80020657     0.29400
C1376       C  0.86954296  0.24111046  0.79602467    -0.21400
C1377       C  0.84734415  0.21326327  0.81342385    -0.09500
C1378       C  0.86020339  0.21961780  0.83505066     0.29400
F1379       F  0.83936235  0.19274216  0.85210110    -0.20000
H1380       H  0.90326724  0.25807846  0.85624468     0.17700
H1381       H  0.85992491  0.23634244  0.77924508     0.17800
F1382       F  0.92456622  0.30185646  0.78295280    -0.20000
C1383       C  0.96591873  0.35046942  0.89387760    -0.21400
C1384       C  0.99108848  0.37678180  0.87650902    -0.09500
C1385       C  0.51686483  0.41611937  0.88078799     0.29400
C1386       C  0.51513381  0.42920300  0.90130766    -0.21400
C1387       C  0.98849509  0.40346822  0.91807577    -0.09500
C1388       C  0.96469060  0.36367639  0.91458957     0.29400
F1389       F  0.93823266  0.33839631  0.93053399    -0.20000
H1390       H  0.94603508  0.31998687  0.89119173     0.17700
H1391       H  0.53357363  0.46005724  0.90383648     0.17800
F1392       F  0.54211088  0.44278177  0.86485321    -0.20000
C1393       C  0.66376557  0.02135124  0.77761339    -0.21400
C1394       C  0.63496006  0.99880771  0.79443947    -0.09500
C1395       C  0.64063315  0.01241723  0.81584883     0.29400
C1396       C  0.67428793  0.04759042  0.82008212    -0.21400
C1397       C  0.70265527  0.06963288  0.80313812    -0.09500
C1398       C  0.69716100  0.05623278  0.78189086     0.29400
F1399       F  0.72430606  0.07697135  0.76522948    -0.20000
H1400       H  0.66071869  0.01199674  0.76098427     0.17700
H1401       H  0.67845763  0.05747546  0.83661866     0.17800
F1402       F  0.61339337  0.49243119  0.83246189    -0.20000
C1403       C  0.53719575  0.35359535  0.71314320    -0.21400
C1404       C  0.57234915  0.37197445  0.70021794    -0.09500
C1405       C  0.60407115  0.40652748  0.70715454     0.29400
C1406       C  0.60113022  0.42108819  0.72696183    -0.21400
C1407       C  0.56678731  0.40156657  0.74053392    -0.09500
C1408       C  0.53435571  0.36805283  0.73313159     0.29400
F1409       F  0.50019010  0.34860463  0.74534086    -0.20000
H1410       H  0.51220453  0.32704250  0.70823794     0.17700
H1411       H  0.62660100  0.44704348  0.73203145     0.17800
F1412       F  0.63856389  0.42576199  0.69525621    -0.20000
C1413       C  0.76476035  0.05048618  0.83375450    -0.21400
C1414       C  0.77370051  0.06822263  0.81215203    -0.09500
C1415       C  0.78266048  0.05060506  0.79545005     0.29400
C1416       C  0.78286074  0.01556045  0.80052212    -0.21400
C1417       C  0.77479445  0.99815723  0.82235877    -0.09500
C1418       C  0.76541016  0.01592657  0.83892343     0.29400
F1419       F  0.75687880  0.00005848  0.86017393    -0.20000
H1420       H  0.75784373  0.06392659  0.84675215     0.17700
H1421       H  0.79055478  0.00274225  0.78752804     0.17800
F1422       F  0.79179440  0.06756477  0.77444096    -0.20000
C1423       C  0.83769916  0.41333599  0.87906059    -0.21400
C1424       C  0.81024202  0.42567219  0.87644669    -0.09500
C1425       C  0.80168132  0.44172281  0.89426718     0.29400
C1426       C  0.82240950  0.44815259  0.91352752    -0.21400
C1427       C  0.85233658  0.43903946  0.91549264    -0.09500
C1428       C  0.85881747  0.42011961  0.89831277     0.29400
F1429       F  0.88733744  0.41062526  0.89930222    -0.20000
H1430       H  0.84486534  0.40099293  0.86557918     0.17700
H1431       H  0.81616301  0.46208177  0.92651029     0.17800
F1432       F  0.77441025  0.45288980  0.89275402    -0.20000
C1433       C  0.78001675  0.27487311  0.81733843    -0.21400
C1434       C  0.77832232  0.28781120  0.79533791    -0.09500
C1435       C  0.77662879  0.26437063  0.77823064     0.29400
C1436       C  0.77507656  0.22863038  0.78314627    -0.21400
C1437       C  0.77594733  0.21553960  0.80500114    -0.09500
C1438       C  0.77914318  0.23911247  0.82214293     0.29400
F1439       F  0.78129068  0.22752129  0.84340965    -0.20000
H1440       H  0.78167830  0.29221407  0.83084970     0.17700
H1441       H  0.77348743  0.21105916  0.76974998     0.17800
F1442       F  0.77662872  0.27574164  0.75660228    -0.20000
C1443       C  0.75293652  0.35880830  0.70246874    -0.21400
C1444       C  0.72270380  0.36727743  0.69967774    -0.09500
C1445       C  0.71105860  0.38075865  0.71761619     0.29400
C1446       C  0.72742444  0.38284620  0.73824288    -0.21400
C1447       C  0.75506322  0.37089365  0.74144077    -0.09500
C1448       C  0.76878115  0.36028273  0.72316084     0.29400
F1449       F  0.79650596  0.34985956  0.72549926    -0.20000
H1450       H  0.76257153  0.34847086  0.68901167     0.17700
H1451       H  0.71656999  0.39129958  0.75206189     0.17800
F1452       F  0.68253968  0.39011811  0.71555965    -0.20000
C1453       C  0.97210707  0.07251952  0.44993057    -0.21400
C1454       C  0.95920547  0.05236415  0.47088587    -0.09500
C1455       C  0.94695133  0.06813896  0.48716101     0.29400
C1456       C  0.94694598  0.10330911  0.48223517    -0.21400
C1457       C  0.95906868  0.12315630  0.46102429    -0.09500
C1458       C  0.97205269  0.10749762  0.44495002     0.29400
F1459       F  0.98496623  0.12600396  0.42441639    -0.20000
H1460       H  0.98180308  0.06073929  0.43727256     0.17700
H1461       H  0.43671111  0.11458907  0.49489166     0.17800
F1462       F  0.93489038  0.04954321  0.50771008    -0.20000
C1463       C  0.95952649  0.35669744  0.50561086    -0.21400
C1464       C  0.95096329  0.33045304  0.48905678    -0.09500
C1465       C  0.94371579  0.34116441  0.46765657     0.29400
C1466       C  0.94527544  0.37730297  0.46316150    -0.21400
C1467       C  0.95428417  0.40327332  0.47980455    -0.09500
C1468       C  0.96136111  0.39265121  0.50104063     0.29400
F1469       F  0.96986229  0.41713145  0.51747332    -0.20000
H1470       H  0.96538844  0.34976616  0.52221964     0.17700
H1471       H  0.93967475  0.38517201  0.44669228     0.17800
F1472       F  0.93527687  0.31702252  0.45106452    -0.20000
C1473       C  0.00283801  0.23729451  0.54550321    -0.21400
C1474       C  0.97375269  0.24747140  0.54314672    -0.09500
C1475       C  0.96022175  0.25734051  0.56178464     0.29400
C1476       C  0.97722367  0.25924213  0.58212299    -0.21400
C1477       C  0.50870374  0.25245039  0.58405382    -0.09500
C1478       C  0.52060089  0.24022360  0.56567173     0.29400
F1479       F  0.55072358  0.23308172  0.56680143    -0.20000
H1480       H  0.01379953  0.22976596  0.53132130     0.17700
H1481       H  0.96753735  0.26877330  0.59595134     0.17800
F1482       F  0.93174730  0.26683049  0.56010910    -0.20000
C1483       C  0.82780775  0.34355110  0.48440369    -0.21400
C1484       C  0.81531073  0.33661028  0.46263772    -0.09500
C1485       C  0.83646354  0.36596382  0.44543965     0.29400
C1486       C  0.87005610  0.40055243  0.44986556    -0.21400
C1487       C  0.88339460  0.40658771  0.47135687    -0.09500
C1488       C  0.86183618  0.37820665  0.48874167     0.29400
F1489       F  0.87412608  0.38365619  0.50972969    -0.20000
H1490       H  0.81211802  0.32152912  0.49792522     0.17700
H1491       H  0.88631005  0.42246516  0.43637451     0.17800
F1492       F  0.82498147  0.36125283  0.42425628    -0.20000
C1493       C  0.55984624  0.06962021  0.46393438    -0.21400
C1494       C  0.52964043  0.04945687  0.48020169    -0.09500
C1495       C  0.53389037  0.06414312  0.50106883     0.29400
C1496       C  0.56787774  0.09818043  0.50570764    -0.21400
C1497       C  0.59853788  0.11877788  0.48960356    -0.09500
C1498       C  0.59402778  0.10413690  0.46848940     0.29400
F1499       F  0.62229057  0.12308962  0.45218838    -0.20000
H1500       H  0.55676181  0.05875297  0.44768678     0.17700
H1501       H  0.56992092  0.10843186  0.52205139     0.17800
F1502       F  0.50506153  0.04525557  0.51709464    -0.20000
C1503       C  0.63323572  0.19612414  0.55775443    -0.21400
C1504       C  0.66670853  0.21659166  0.54348556    -0.09500
C1505       C  0.69810791  0.25190434  0.55000244     0.29400
C1506       C  0.69486784  0.26727870  0.56955148    -0.21400
C1507       C  0.66043424  0.24797812  0.58307284    -0.09500
C1508       C  0.62997967  0.21153821  0.57724378     0.29400
F1509       F  0.59655350  0.19106571  0.59004200    -0.20000
H1510       H  0.60872059  0.16861345  0.55351145     0.17700
H1511       H  0.71894934  0.29520897  0.57364354     0.17800
F1512       F  0.73162626  0.27234094  0.53729186    -0.20000
C1513       C  0.59006028  0.48309350  0.48402544    -0.21400
C1514       C  0.59858622  0.47590458  0.46284470    -0.09500
C1515       C  0.57088271  0.46726806  0.44647573     0.29400
C1516       C  0.53635453  0.46728438  0.45101083    -0.21400
C1517       C  0.52855015  0.47586800  0.47184040    -0.09500
C1518       C  0.55534469  0.48324418  0.48849803     0.29400
F1519       F  0.54811395  0.49093978  0.50892890    -0.20000
H1520       H  0.61083922  0.48989690  0.49689537     0.17700
H1521       H  0.51572184  0.46107988  0.43808784     0.17800
F1522       F  0.57708222  0.45886033  0.42599756    -0.20000
C1523       C  0.86648431  0.98872195  0.46195894    -0.21400
C1524       C  0.88471649  0.47893510  0.47889622    -0.09500
C1525       C  0.86811157  0.46928375  0.50043379     0.29400
C1526       C  0.83359307  0.46903500  0.50501389    -0.21400
C1527       C  0.81436197  0.47813734  0.48819450    -0.09500
C1528       C  0.83142258  0.98828480  0.46651435     0.29400
F1529       F  0.81427746  0.99752481  0.44969244    -0.20000
H1530       H  0.87926832  0.99647785  0.44525639     0.17700
H1531       H  0.82186464  0.46131926  0.52193390     0.17800
F1532       F  0.88579934  0.46060908  0.51719957    -0.20000
C1533       C  0.73593057  0.44698231  0.56122789    -0.21400
C1534       C  0.71009695  0.44038786  0.54403030    -0.09500
C1535       C  0.67031988  0.41294641  0.54827790     0.29400
C1536       C  0.65751219  0.39014667  0.56853283    -0.21400
C1537       C  0.68392179  0.39434639  0.58508278    -0.09500
C1538       C  0.72308491  0.42454477  0.58159053     0.29400
F1539       F  0.74966493  0.43070113  0.59714310    -0.20000
H1540       H  0.76668055  0.46834886  0.55852048     0.17700
H1541       H  0.62708020  0.36756795  0.57073746     0.17800
F1542       F  0.64430904  0.40557286  0.53223747    -0.20000
C1543       C  0.95209877  0.19321834  0.38844560    -0.21400
C1544       C  0.94107521  0.20817989  0.40576004    -0.09500
C1545       C  0.91741024  0.22483476  0.40128855     0.29400
C1546       C  0.90180637  0.22258516  0.38051387    -0.21400
C1547       C  0.90997251  0.20431843  0.36385777    -0.09500
C1548       C  0.93683427  0.19138376  0.36759472     0.29400
F1549       F  0.94508464  0.17314628  0.35195641    -0.20000
H1550       H  0.97067054  0.18067084  0.39142458     0.17700
H1551       H  0.88129333  0.23287669  0.37788205     0.17800
F1552       F  0.90617314  0.23980105  0.41746284    -0.20000
C1553       C  0.79029547  0.23887332  0.37668463    -0.21400
C1554       C  0.75755568  0.20552758  0.36960252    -0.09500
C1555       C  0.72228267  0.18866124  0.38246631     0.29400
C1556       C  0.72074742  0.20354804  0.40252413    -0.21400
C1557       C  0.75393970  0.23595105  0.41000066    -0.09500
C1558       C  0.78856953  0.25419352  0.39649136     0.29400
F1559       F  0.82144190  0.28594935  0.40269955    -0.20000
H1560       H  0.81776890  0.25270839  0.36715116     0.17700
H1561       H  0.69355074  0.18935583  0.41233566     0.17800
F1562       F  0.68941557  0.15711914  0.37607884    -0.20000
C1563       C  0.74480122  0.04318717  0.40376716    -0.21400
C1564       C  0.70472558  0.01678276  0.40762504    -0.09500
C1565       C  0.67970973  0.01046782  0.38998454     0.29400
C1566       C  0.69398199  0.03270683  0.36969276    -0.21400
C1567       C  0.73342043  0.06188905  0.36649362    -0.09500
C1568       C  0.75911850  0.06562318  0.38346548     0.29400
F1569       F  0.79778261  0.09243198  0.38099097    -0.20000
H1570       H  0.76474142  0.54829682  0.41683105     0.17700
H1571       H  0.67350880  0.02866561  0.35696525     0.17800
F1572       F  0.64101634  0.98389270  0.39258431    -0.20000
C1573       C  0.76941980  0.30679772  0.15093715    -0.21400
C1574       C  0.78014998  0.30622087  0.12879643    -0.09500
C1575       C  0.75451649  0.30402331  0.11212484     0.29400
C1576       C  0.71979412  0.30315271  0.11749130    -0.21400
C1577       C  0.70960650  0.30447868  0.13942786    -0.09500
C1578       C  0.73450621  0.30612601  0.15622654     0.29400
F1579       F  0.72524657  0.30744313  0.17761800    -0.20000
H1580       H  0.78841794  0.30859328  0.16412905     0.17700
H1581       H  0.70081978  0.30189012  0.10437741     0.17800
F1582       F  0.76275103  0.30272977  0.09052710    -0.20000
C1583       C  0.86542773  0.35294680  0.05835472    -0.21400
C1584       C  0.88385270  0.33829056  0.07264267    -0.09500
C1585       C  0.91874371  0.34066534  0.06501395     0.29400
C1586       C  0.93609456  0.36008280  0.04434884    -0.21400
C1587       C  0.91939356  0.37795697  0.03118218    -0.09500
C1588       C  0.88311377  0.37290421  0.03799176     0.29400
F1589       F  0.86588615  0.38940923  0.02556033    -0.20000
H1590       H  0.83833255  0.35120774  0.06344482     0.17700
H1591       H  0.96421020  0.36388968  0.03948082     0.17800
F1592       F  0.93722549  0.32611145  0.07786545    -0.20000
C1593       C  0.51949995  0.30962369  0.17257590    -0.21400
C1594       C  0.49563818  0.30803502  0.15507533    -0.09500
C1595       C  0.50855075  0.30831571  0.13325591     0.29400
C1596       C  0.54402503  0.30925144  0.12933820    -0.21400
C1597       C  0.56702351  0.31005957  0.14704030    -0.09500
C1598       C  0.55462951  0.31053117  0.16863315     0.29400
F1599       F  0.57621063  0.31086492  0.18602471    -0.20000
H1600       H  0.51075693  0.30958699  0.18954303     0.17700
H1601       H  0.55328678  0.30871192  0.11257984     0.17800
F1602       F  0.48646967  0.30631798  0.11582606    -0.20000
C1603       C  0.84975749  0.24246562  0.21371303    -0.21400
C1604       C  0.88963114  0.26981220  0.20997574    -0.09500
C1605       C  0.91464394  0.27728805  0.22767037     0.29400
C1606       C  0.90077104  0.25503738  0.24793710    -0.21400
C1607       C  0.86173063  0.22478637  0.25102053    -0.09500
C1608       C  0.83580173  0.22003745  0.23402146     0.29400
F1609       F  0.79741200  0.19229759  0.23647243    -0.20000
H1610       H  0.82980800  0.23648213  0.20044195     0.17700
H1611       H  0.92133526  0.25996992  0.26073991     0.17800
F1612       F  0.95303588  0.30493052  0.22508059    -0.20000
C1613       C  0.75145905  0.42550317  0.17485339    -0.21400
C1614       C  0.77716500  0.45067221  0.15735175    -0.09500
C1615       C  0.76955540  0.43861601  0.13563499     0.29400
C1616       C  0.73708674  0.40229810  0.13172750    -0.21400
C1617       C  0.71164446  0.37770776  0.14929336    -0.09500
C1618       C  0.71903809  0.38956565  0.17088386     0.29400
F1619       F  0.69415894  0.36675855  0.18808237    -0.20000
H1620       H  0.75609660  0.43372085  0.19174136     0.17700
H1621       H  0.73107687  0.39382606  0.11492991     0.17800
F1622       F  0.79251064  0.46232423  0.11808398    -0.20000
C1623       C  0.87352490  0.09705186  0.23784215    -0.21400
C1624       C  0.83799125  0.08034434  0.25027846    -0.09500
C1625       C  0.80498295  0.04768694  0.24268935     0.29400
C1626       C  0.80734068  0.03321087  0.22276342    -0.21400
C1627       C  0.84233355  0.05106650  0.20978903    -0.09500
C1628       C  0.87572632  0.08287021  0.21770678     0.29400
F1629       F  0.91033251  0.10084914  0.20591370    -0.20000
H1630       H  0.89944899  0.12217830  0.24324844     0.17700
H1631       H  0.78121669  0.50857780  0.21728791     0.17800
F1632       F  0.76990255  0.03051968  0.25395857    -0.20000
C1633       C  0.52235674  0.19218000  0.11234701    -0.21400
C1634       C  0.99517211  0.16798096  0.12953090    -0.09500
C1635       C  0.50279237  0.17958513  0.15137994     0.29400
C1636       C  0.53738330  0.21376049  0.15576099    -0.21400
C1637       C  0.56450512  0.23696320  0.13849495    -0.09500
C1638       C  0.55646874  0.22630900  0.11675165     0.29400
F1639       F  0.58188056  0.24903624  0.09974149    -0.20000
H1640       H  0.01744068  0.18470027  0.09534171     0.17700
H1641       H  0.54320159  0.22201013  0.17260913     0.17800
F1642       F  0.97727086  0.15793126  0.16854986    -0.20000
C1643       C  0.94707038  0.09863227  0.05775061    -0.21400
C1644       C  0.92277725  0.07202061  0.07528239    -0.09500
C1645       C  0.89808819  0.03238031  0.07119215     0.29400
C1646       C  0.89972415  0.01951147  0.05055839    -0.21400
C1647       C  0.92530397  0.04570416  0.03349685    -0.09500
C1648       C  0.94824663  0.08562339  0.03695106     0.29400
F1649       F  0.47387808  0.11135083  0.02083970    -0.20000
H1650       H  0.96617893  0.12932230  0.06032905     0.17700
H1651       H  0.88210691  0.98850809  0.04815264     0.17800
F1652       F  0.87407536  0.00535313  0.08740148    -0.20000
C1653       C  0.63618799  0.21143897  0.12956555    -0.21400
C1654       C  0.63373916  0.23179259  0.14706049    -0.09500
C1655       C  0.62723311  0.21468264  0.16877211     0.29400
C1656       C  0.62452357  0.17831442  0.17308666    -0.21400
C1657       C  0.62841145  0.15814994  0.15584102    -0.09500
C1658       C  0.63346156  0.17472496  0.13385624     0.29400
F1659       F  0.63706686  0.15629556  0.11662531    -0.20000
H1660       H  0.64056914  0.22417378  0.11268175     0.17700
H1661       H  0.62008596  0.16629559  0.19013244     0.17800
F1662       F  0.62394566  0.23353993  0.18588871    -0.20000
C1663       C  0.69900322  0.07072677  0.23575574    -0.21400
C1664       C  0.68919724  0.08713691  0.25287285    -0.09500
C1665       C  0.66109172  0.09848605  0.24920958     0.29400
C1666       C  0.64495479  0.09545839  0.22849479    -0.21400
C1667       C  0.65626584  0.08095826  0.21104669    -0.09500
C1668       C  0.68264053  0.06746840  0.21505976     0.29400
F1669       F  0.69505960  0.05410054  0.19856914    -0.20000
H1670       H  0.72079171  0.06204698  0.23807338     0.17700
H1671       H  0.62472935  0.10609039  0.22581408     0.17800
F1672       F  0.65157989  0.11558284  0.26496084    -0.20000
C1673       C  0.64574879  0.43224682  0.11358270    -0.21400
C1674       C  0.64189015  0.45252613  0.13078414    -0.09500
C1675       C  0.64047011  0.43802330  0.15290156     0.29400
C1676       C  0.64050693  0.40275917  0.15745133    -0.21400
C1677       C  0.64240746  0.38194684  0.14009085    -0.09500
C1678       C  0.64602010  0.39735896  0.11817365     0.29400
F1679       F  0.64881097  0.37798645  0.10117433    -0.20000
H1680       H  0.64759080  0.44284686  0.09642397     0.17700
H1681       H  0.63823453  0.39124670  0.17445255     0.17800
F1682       F  0.63738175  0.45681346  0.17008971    -0.20000
C1683       C  0.55573570  0.52884269  0.05307202    -0.21400
C1684       C  0.56092215  0.50767760  0.03682719    -0.09500
C1685       C  0.58888064  0.99571822  0.04006094     0.29400
C1686       C  0.60851737  0.00216638  0.05972028    -0.21400
C1687       C  0.60076099  0.52028625  0.07677783    -0.09500
C1688       C  0.57536283  0.53508081  0.07288963     0.29400
F1689       F  0.56721434  0.55297458  0.08876424    -0.20000
H1690       H  0.03485394  0.53876983  0.05101205     0.17700
H1691       H  0.62848833  0.99113315  0.06204919     0.17800
F1692       F  0.59581226  0.97584851  0.02488509    -0.20000
C1693       C  0.61639049  0.01943265  0.09880637     0.80100
N1694       N  0.61871309  0.54388947  0.11431707    -0.78200
C1695       C  0.63020403  0.54004226  0.13501555     0.82500
N1696       N  0.63850774  0.01101880  0.14029140    -0.78200
C1697       C  0.63606731  0.98634906  0.12497925     0.82600
N1698       N  0.62510611  0.99094723  0.10438220    -0.79900
C1699       C  0.64416658  0.58496314  0.18839822     0.80100
N1700       N  0.63849304  0.61540165  0.18259494    -0.78200
C1701       C  0.63047658  0.62218548  0.16158480     0.82500
N1702       N  0.62764066  0.59751843  0.14612702    -0.78200
C1703       C  0.63289081  0.56652661  0.15174610     0.82600
N1704       N  0.64162143  0.56063840  0.17283296    -0.79900
C1705       C  0.92554330  0.58493069  0.09803005     0.80100
N1706       N  0.89784825  0.56181127  0.11396832    -0.78200
C1707       C  0.90081006  0.57272857  0.13492567     0.82500
N1708       N  0.93202909  0.60717273  0.14008643    -0.78200
C1709       C  0.96012459  0.63069285  0.12430441     0.82600
N1710       N  0.95651164  0.61923590  0.10335466    -0.79900
C1711       C  0.84263679  0.53711056  0.18784164     0.80100
N1712       N  0.81260719  0.00215357  0.18259105    -0.78200
C1713       C  0.81076160  0.98932283  0.16218564     0.82500
N1714       N  0.83966341  0.01231832  0.14669486    -0.78200
C1715       C  0.87010289  0.54743222  0.15177800     0.82600
N1716       N  0.87138545  0.55968997  0.17230543    -0.79900
C1717       C  0.90619005  0.78664963  0.18734286     0.80100
N1718       N  0.88466440  0.79183076  0.17153009    -0.78200
C1719       C  0.89929689  0.80368343  0.15027784     0.82500
N1720       N  0.93537250  0.80947700  0.14479263    -0.78200
C1721       C  0.95697696  0.80403730  0.16052069     0.82600
N1722       N  0.94201492  0.79273915  0.18162960    -0.79900
C1723       C  0.81834917  0.80952258  0.12305005     0.80100
N1724       N  0.83270931  0.81950853  0.10178067    -0.78200
C1725       C  0.86804209  0.82434970  0.09590248     0.82500
N1726       N  0.88952970  0.81925074  0.11178207    -0.78200
C1727       C  0.87569855  0.80915402  0.13321007     0.82600
N1728       N  0.84016703  0.80452086  0.13880430    -0.79900
C1729       C  0.67309325  0.80533844  0.14375641     0.02100
C1730       C  0.67460947  0.84168658  0.14505667     0.02100
C1731       C  0.63997279  0.84349522  0.14419322     0.02100
C1732       C  0.60350615  0.80890991  0.14354499     0.02100
C1733       C  0.60183440  0.77254032  0.14262449     0.02100
C1734       C  0.63648247  0.77063032  0.14307083     0.02100
O1735       O  0.69832695  0.60239916  0.29062453    -0.81000
O1736       O  0.84968885  0.68245021  0.34780600    -0.65700
O1737       O  0.77199849  0.65380470  0.30554404    -1.12300
C1738       C  0.83481506  0.59991438  0.26957603     1.05900
O1739       O  0.89945021  0.69000202  0.32644070    -0.78900
O1740       O  0.87406215  0.70137895  0.28555745    -0.66500
Ni1741     Ni  0.71910807  0.62959301  0.31704979     1.34900
C1742       C  0.85016446  0.69552978  0.27032319     0.84600
O1743       O  0.79483694  0.70047544  0.34062679    -0.79500
O1744       O  0.73179618  0.65639513  0.34405533    -0.89700
C1745       C  0.88515266  0.69228552  0.34476232     0.84200
O1746       O  0.72252157  0.58696122  0.33176790    -0.67900
O1747       O  0.86486871  0.63083586  0.27503743    -0.87200
C1748       C  0.74590126  0.59195976  0.34726562     0.85000
C1749       C  0.76147737  0.68703079  0.35008530     1.06600
H1750       H  0.82034887  0.61283627  0.32272573     0.38400
O1751       O  0.82544817  0.63543833  0.31298798    -1.09900
O1752       O  0.81794028  0.66329620  0.26999467    -0.66500
Ni1753     Ni  0.78642958  0.62023435  0.29186564     1.26300
O1754       O  0.77834452  0.62393331  0.34808841    -0.66800
O1755       O  0.80169985  0.58720452  0.27907878    -0.79100
C1756       C  0.71272404  0.59831258  0.27281813     0.84400
O1757       O  0.74740190  0.60518388  0.27090187    -0.66200
Ni1758     Ni  0.87817980  0.65997279  0.30113336     1.27400
Ni1759     Ni  0.81056913  0.66821305  0.32698891     1.26100
H1760       H  0.77765469  0.67659764  0.29573173     0.38900
C1761       C  0.77644007  0.97522903  0.49406849     0.80100
N1762       N  0.76164955  0.96341168  0.51519218    -0.78200
C1763       C  0.72603068  0.95739102  0.52125095     0.82500
N1764       N  0.70455290  0.96348918  0.50570056    -0.78200
C1765       C  0.71914393  0.97612895  0.48441927     0.82600
N1766       N  0.75488228  0.48158671  0.47857359    -0.79900
C1767       C  0.63742234  0.98077956  0.45731628     0.80100
N1768       N  0.65232155  0.99279508  0.43623501    -0.78200
C1769       C  0.68849552  0.99990556  0.43043754     0.82500
N1770       N  0.71030907  0.99491094  0.44620217    -0.78200
C1771       C  0.69567091  0.98236237  0.46746504     0.82600
N1772       N  0.65933890  0.97575646  0.47299321    -0.79900
C1773       C  0.66701274  0.70175288  0.52171619     0.80100
N1774       N  0.63613014  0.66765684  0.51607602    -0.78200
C1775       C  0.63395896  0.65528175  0.49545513     0.82500
N1776       N  0.66349745  0.67775848  0.48020075    -0.78200
C1777       C  0.69469914  0.71206239  0.48556552     0.82600
N1778       N  0.69618292  0.72392500  0.50626936    -0.79900
C1779       C  0.75297851  0.74927930  0.43240268     0.80100
N1780       N  0.78141534  0.78513325  0.43750491    -0.78200
C1781       C  0.78256386  0.79764071  0.45791695     0.82500
N1782       N  0.75468431  0.77352839  0.47362867    -0.78200
C1783       C  0.72558263  0.73753269  0.46872960     0.82600
N1784       N  0.72485903  0.72553280  0.44810619    -0.79900
C1785       C  0.96194418  0.75292940  0.52102213     0.80100
N1786       N  0.96024358  0.72993430  0.50491229    -0.78200
C1787       C  0.95352386  0.73796495  0.48381234     0.82500
N1788       N  0.94952419  0.76987422  0.47870492    -0.78200
C1789       C  0.95159044  0.79337411  0.49471105     0.82600
N1790       N  0.95771188  0.78448054  0.51578669    -0.79900
C1791       C  0.94908553  0.70082037  0.42887355     0.80100
N1792       N  0.94898964  0.72294420  0.44506343    -0.78200
C1793       C  0.45288089  0.71347734  0.46646120     0.82500
N1794       N  0.45633521  0.68132149  0.47172025    -0.78200
C1795       C  0.45650973  0.65900734  0.45561744     0.82600
N1796       N  0.95286195  0.66901149  0.43429746    -0.79900
C1797       C  0.92073398  0.94260737  0.47501596     0.02100
C1798       C  0.92168690  0.97883266  0.47492615     0.02100
C1799       C  0.95771468  0.51416138  0.47488041     0.02100
C1800       C  0.99286332  0.51315087  0.47578652     0.02100
C1801       C  0.99197947  0.97681633  0.47561692     0.02100
C1802       C  0.95574038  0.94146387  0.47584655     0.02100
C1803       C  0.76576592  0.86471557  0.76409522     0.80100
N1804       N  0.76948440  0.83290724  0.76937582    -0.78200
C1805       C  0.77695019  0.82457650  0.79022499     0.82500
N1806       N  0.78087038  0.84900289  0.80614480    -0.78200
C1807       C  0.77720355  0.88118209  0.80107523     0.82600
N1808       N  0.76918521  0.88861273  0.78008598    -0.79900
C1809       C  0.79491167  0.92749020  0.85445349     0.80100
N1810       N  0.78855248  0.95756261  0.84883514    -0.78200
C1811       C  0.77880042  0.96335698  0.82814914     0.82500
N1812       N  0.77537169  0.93847671  0.81274161    -0.78200
C1813       C  0.78121741  0.90780505  0.81809375     0.82600
N1814       N  0.79151035  0.90263556  0.83893211    -0.79900
C1815       C  0.56696104  0.91475162  0.76301223     0.80100
N1816       N  0.59737603  0.94930967  0.76844173    -0.78200
C1817       C  0.60016628  0.96126703  0.78916507     0.82500
N1818       N  0.57176332  0.93779636  0.80477887    -0.78200
C1819       C  0.54094230  0.90303924  0.79958676     0.82600
N1820       N  0.53873719  0.89162745  0.77873286    -0.79900
C1821       C  0.98834776  0.86359235  0.85405413     0.80100
N1822       N  0.95696180  0.82954147  0.84877947    -0.78200
C1823       C  0.95221854  0.81897424  0.82761807     0.82500
N1824       N  0.97950179  0.84298944  0.81159042    -0.78200
C1825       C  0.51111750  0.87710512  0.81670958     0.82600
N1826       N  0.51524301  0.88720689  0.83787227    -0.79900
C1827       C  0.59075427  0.63339237  0.82573449     0.80100
N1828       N  0.56985485  0.63966730  0.80987340    -0.78200
C1829       C  0.53472945  0.63613215  0.81528515     0.82500
N1830       N  0.52047695  0.62605471  0.83667922    -0.78200
C1831       C  0.54107987  0.61981698  0.85270926     0.82600
N1832       N  0.57603876  0.62357332  0.84697330    -0.79900
C1833       C  0.00569893  0.66183167  0.76127372     0.80100
N1834       N  0.52691601  0.65562410  0.77695613    -0.78200
C1835       C  0.01192856  0.64289433  0.79813782     0.82500
N1836       N  0.97607663  0.63750291  0.80366134    -0.78200
C1837       C  0.95489071  0.64408626  0.78816625     0.82600
N1838       N  0.97004213  0.65608077  0.76711329    -0.79900
C1839       C  0.73928437  0.64210304  0.80842713     0.02100
C1840       C  0.77520073  0.67766053  0.80907061     0.02100
C1841       C  0.81055896  0.67706639  0.80956018     0.02100
C1842       C  0.81026541  0.64133755  0.80843401     0.02100
C1843       C  0.77449415  0.60593442  0.80811885     0.02100
C1844       C  0.73909935  0.60633183  0.80744700     0.02100
O1845       O  0.92963091  0.54119743  0.99447502    -0.81000
O1846       O  0.97305274  0.94652499  0.93359189    -0.65700
O1847       O  0.92440388  0.97320973  0.97754127    -1.12300
C1848       C  0.53478930  0.99459358  0.01788326     1.05900
O1849       O  0.98423509  0.90812615  0.95701700    -0.78900
O1850       O  0.96682202  0.90385968  0.00131589    -0.66500
Ni1851     Ni  0.90472915  0.50806372  0.97031087     1.34900
C1852       C  0.94346566  0.90844004  0.01350833     0.84600
O1853       O  0.90452316  0.94295210  0.93633116    -0.79500
O1854       O  0.87643120  0.97722417  0.94636433    -0.89700
C1855       C  0.98190485  0.92017205  0.93739596     0.84200
O1856       O  0.94536363  0.54469898  0.94938137    -0.67900
O1857       O  0.53634135  0.97011347  0.00572956    -0.87200
C1858       C  0.96902315  0.54050074  0.93716207     0.85000
C1859       C  0.87901349  0.95339439  0.93407238     1.06600
H1860       H  0.51254574  0.00054914  0.96740777     0.38400
O1861       O  0.99050270  0.97658890  0.97394014    -1.09900
O1862       O  0.94143948  0.93956570  0.01244493    -0.66500
Ni1863     Ni  0.96711093  0.99011662  0.99652721     1.26300
O1864       O  0.97282228  0.51035592  0.93893634    -0.66800
O1865       O  0.51045001  0.00658311  0.01529996    -0.79100
C1866       C  0.93234342  0.52933731  0.01413212     0.84400
O1867       O  0.94192535  0.50351083  0.01788187    -0.66200
Ni1868     Ni  0.00880516  0.94061681  0.98131782     1.27400
Ni1869     Ni  0.94787386  0.95984217  0.95496395     1.26100
H1870       H  0.90255665  0.94905940  0.98404838     0.38900
O1871       O  0.51681580  0.76556520  0.62211389    -0.81000
O1872       O  0.66474365  0.84794725  0.68115976    -0.65700
O1873       O  0.58962498  0.81952819  0.63737120    -1.12300
C1874       C  0.65540065  0.76712846  0.60224557     1.05900
O1875       O  0.71541370  0.85330969  0.66177532    -0.78900
O1876       O  0.69425865  0.86803614  0.61970538    -0.66500
Ni1877     Ni  0.53609740  0.79460498  0.64808127     1.30400
C1878       C  0.67136853  0.86341414  0.60402186     0.84600
O1879       O  0.61070762  0.86611094  0.67221862    -0.79500
O1880       O  0.54731888  0.82279622  0.67461500    -0.89700
C1881       C  0.69996240  0.85638859  0.67950570     0.84200
O1882       O  0.53879023  0.75246973  0.66399467    -0.67900
O1883       O  0.68498035  0.79764566  0.60858008    -0.87200
C1884       C  0.56211032  0.75762554  0.67950172     0.85000
C1885       C  0.57695253  0.85324682  0.68093718     1.06600
H1886       H  0.63646423  0.77789931  0.65555451     0.38400
O1887       O  0.64263950  0.80099421  0.64586349    -1.09900
O1888       O  0.63883991  0.83159244  0.60295964    -0.66500
Ni1889     Ni  0.60541259  0.78709059  0.62368151     1.26300
O1890       O  0.59422567  0.78979709  0.68041651    -0.66800
O1891       O  0.62153130  0.75464259  0.61068671    -0.79100
C1892       C  0.53231485  0.76374402  0.60406673     0.84400
O1893       O  0.56788981  0.77359714  0.60192864    -0.66200
Ni1894     Ni  0.69617914  0.82525915  0.63538975     1.27400
Ni1895     Ni  0.62706973  0.83381809  0.65940962     1.26100
H1896       H  0.59542648  0.84245008  0.62771490     0.38900
C1897       C  0.89760293  0.65073342  0.77738636    -0.21400
C1898       C  0.91694711  0.64134536  0.79401370    -0.09500
C1899       C  0.90029666  0.63126059  0.81582207     0.29400
C1900       C  0.86572695  0.63151448  0.82070719    -0.21400
C1901       C  0.84732781  0.64169338  0.80399562    -0.09500
C1902       C  0.86336564  0.65100044  0.78230497     0.29400
F1903       F  0.84551104  0.65999534  0.76576857    -0.20000
H1904       H  0.90908383  0.65832025  0.76041494     0.17700
H1905       H  0.85327189  0.62377892  0.83748307     0.17800
F1906       F  0.91727310  0.62131870  0.83243491    -0.20000
C1907       C  0.56194505  0.70798026  0.73545147    -0.21400
C1908       C  0.52237013  0.67942627  0.73867377    -0.09500
C1909       C  0.49775224  0.67229253  0.72077565     0.29400
C1910       C  0.51167483  0.69582798  0.70083887    -0.21400
C1911       C  0.55032080  0.72715791  0.69835633    -0.09500
C1912       C  0.57588987  0.73175002  0.71556291     0.29400
F1913       F  0.61388482  0.76068104  0.71380061    -0.20000
H1914       H  0.58156264  0.71388676  0.74889135     0.17700
H1915       H  0.49142202  0.69097161  0.68786286     0.17800
F1916       F  0.95963895  0.64371318  0.72289883    -0.20000
C1917       C  0.65359659  0.63936091  0.83778354    -0.21400
C1918       C  0.62922180  0.63685516  0.82040216    -0.09500
C1919       C  0.64184775  0.63669648  0.79856983     0.29400
C1920       C  0.67794050  0.63899922  0.79448159    -0.21400
C1921       C  0.70189720  0.64160138  0.81201469    -0.09500
C1922       C  0.68938492  0.64166817  0.83366450     0.29400
F1923       F  0.71153329  0.64298294  0.85095062    -0.20000
H1924       H  0.64495641  0.63939794  0.85476154     0.17700
H1925       H  0.68703863  0.63830520  0.77771040     0.17800
F1926       F  0.61902573  0.63321100  0.78127510    -0.20000
C1927       C  0.54552031  0.59616536  0.89139234    -0.21400
C1928       C  0.52495499  0.60638262  0.87600209    -0.09500
C1929       C  0.48832577  0.60091585  0.88290656     0.29400
C1930       C  0.47181799  0.58300808  0.90402188    -0.21400
C1931       C  0.49118015  0.56985783  0.91850530    -0.09500
C1932       C  0.52877918  0.57783682  0.91225557     0.29400
F1933       F  0.04849838  0.56587264  0.92590156    -0.20000
H1934       H  0.57397013  0.60044105  0.88694567     0.17700
H1935       H  0.44255484  0.57666621  0.90836140     0.17800
F1936       F  0.46742558  0.61085815  0.86898553    -0.20000
C1937       C  0.89473695  0.75345247  0.83951717    -0.21400
C1938       C  0.91695167  0.78208643  0.82229156    -0.09500
C1939       C  0.90423637  0.77531599  0.80046591     0.29400
C1940       C  0.86962507  0.74112123  0.79626043    -0.21400
C1941       C  0.84754505  0.71311236  0.81361941    -0.09500
C1942       C  0.86055125  0.71924204  0.83522714     0.29400
F1943       F  0.83981627  0.69221091  0.85223667    -0.20000
H1944       H  0.90377775  0.75748168  0.85642860     0.17700
H1945       H  0.85988885  0.73652412  0.77949640     0.17800
F1946       F  0.92454186  0.80200119  0.78326071    -0.20000
C1947       C  0.96582703  0.85017762  0.89407710    -0.21400
C1948       C  0.99141011  0.87633110  0.87679308    -0.09500
C1949       C  0.51751089  0.91555843  0.88113416     0.29400
C1950       C  0.51563120  0.92875603  0.90159517    -0.21400
C1951       C  0.98854505  0.90321577  0.91824434    -0.09500
C1952       C  0.96447000  0.86348129  0.91473288     0.29400
F1953       F  0.93764646  0.83838358  0.93058323    -0.20000
H1954       H  0.94570699  0.81976775  0.89135626     0.17700
H1955       H  0.53432892  0.95955385  0.90416414     0.17800
F1956       F  0.54325676  0.94202713  0.86530870    -0.20000
C1957       C  0.66394543  0.52142134  0.77757395    -0.21400
C1958       C  0.63484008  0.49908018  0.79428973    -0.09500
C1959       C  0.64027873  0.51281282  0.81566667     0.29400
C1960       C  0.67399159  0.54789093  0.81997660    -0.21400
C1961       C  0.70264856  0.56975424  0.80313809    -0.09500
C1962       C  0.69737439  0.55624079  0.78191966     0.29400
F1963       F  0.72474395  0.57684067  0.76534239    -0.20000
H1964       H  0.66108753  0.51197190  0.76097506     0.17700
H1965       H  0.67795666  0.55785954  0.83648948     0.17800
F1966       F  0.61407265  0.99179383  0.83275255    -0.20000
C1967       C  0.53746220  0.85338610  0.71331410    -0.21400
C1968       C  0.57248577  0.87207179  0.70026647    -0.09500
C1969       C  0.60412632  0.90670788  0.70717116     0.29400
C1970       C  0.60125584  0.92104000  0.72707844    -0.21400
C1971       C  0.56705368  0.90121337  0.74076346    -0.09500
C1972       C  0.53469160  0.86761279  0.73339413     0.29400
F1973       F  0.50066995  0.84785348  0.74572001    -0.20000
H1974       H  0.51253897  0.82674855  0.70843830     0.17700
H1975       H  0.62666664  0.94708234  0.73211858     0.17800
F1976       F  0.63846455  0.92624618  0.69513389    -0.20000
C1977       C  0.76452243  0.55023538  0.83382428    -0.21400
C1978       C  0.77357485  0.56810463  0.81224979    -0.09500
C1979       C  0.78270343  0.55063448  0.79553453     0.29400
C1980       C  0.78299633  0.51563285  0.80056402    -0.21400
C1981       C  0.77484614  0.49811672  0.82237232    -0.09500
C1982       C  0.76525399  0.51570377  0.83895057     0.29400
F1983       F  0.75660935  0.49968302  0.86017105    -0.20000
H1984       H  0.75748648  0.56356341  0.84683480     0.17700
H1985       H  0.79084495  0.50294730  0.78756354     0.17800
F1986       F  0.79194563  0.56771662  0.77455419    -0.20000
C1987       C  0.83709127  0.91288041  0.87919137    -0.21400
C1988       C  0.80990877  0.92557320  0.87652872    -0.09500
C1989       C  0.80168464  0.94198302  0.89429351     0.29400
C1990       C  0.82251265  0.94844137  0.91351609    -0.21400
C1991       C  0.85221468  0.93899983  0.91551121    -0.09500
C1992       C  0.85831559  0.91969462  0.89840918     0.29400
F1993       F  0.88654270  0.90979444  0.89944388    -0.20000
H1994       H  0.84397625  0.90021796  0.86576589     0.17700
H1995       H  0.81652826  0.96265959  0.92643913     0.17800
F1996       F  0.77466550  0.95348417  0.89275994    -0.20000
C1997       C  0.78053050  0.77514769  0.81738331    -0.21400
C1998       C  0.77866469  0.78799379  0.79538957    -0.09500
C1999       C  0.77699196  0.76454483  0.77829242     0.29400
C2000       C  0.77540902  0.72878485  0.78322126    -0.21400
C2001       C  0.77633142  0.71572249  0.80507794    -0.09500
C2002       C  0.77972809  0.73941749  0.82219624     0.29400
F2003       F  0.78213997  0.72797821  0.84345057    -0.20000
H2004       H  0.78227362  0.79253828  0.83088498     0.17700
H2005       H  0.77375845  0.71117682  0.76983235     0.17800
F2006       F  0.77703862  0.77592794  0.75666130    -0.20000
C2007       C  0.75279158  0.85851318  0.70252869    -0.21400
C2008       C  0.72295135  0.86753390  0.69965946    -0.09500
C2009       C  0.71170551  0.88153438  0.71750408     0.29400
C2010       C  0.72795900  0.88346767  0.73816015    -0.21400
C2011       C  0.75512953  0.87090798  0.74145709    -0.09500
C2012       C  0.76856197  0.85989448  0.72323012     0.29400
F2013       F  0.79593104  0.84899731  0.72562380    -0.20000
H2014       H  0.76214227  0.84780762  0.68913048     0.17700
H2015       H  0.71738467  0.89232344  0.75191843     0.17800
F2016       F  0.68369872  0.89159292  0.71531465    -0.20000
C2017       C  0.97203102  0.57260422  0.45000945    -0.21400
C2018       C  0.95914587  0.55240079  0.47095346    -0.09500
C2019       C  0.94689363  0.56812801  0.48725825     0.29400
C2020       C  0.94680109  0.60325991  0.48235685    -0.21400
C2021       C  0.95886766  0.62312861  0.46114823    -0.09500
C2022       C  0.97192562  0.60756099  0.44506086     0.29400
F2023       F  0.98487175  0.62614363  0.42454647    -0.20000
H2024       H  0.98175495  0.56087762  0.43733451     0.17700
H2025       H  0.43654217  0.61449138  0.49503127     0.17800
F2026       F  0.93492728  0.54952976  0.50781195    -0.20000
C2027       C  0.95974445  0.85676209  0.50584198    -0.21400
C2028       C  0.95094015  0.83041008  0.48932352    -0.09500
C2029       C  0.94340341  0.84097632  0.46796782     0.29400
C2030       C  0.94503354  0.87713458  0.46345498    -0.21400
C2031       C  0.95431652  0.90323308  0.48004881    -0.09500
C2032       C  0.96156971  0.89270975  0.50126433     0.29400
F2033       F  0.97018314  0.91725495  0.51767276    -0.20000
H2034       H  0.96577885  0.84990857  0.52242456     0.17700
H2035       H  0.93923309  0.88490297  0.44701350     0.17800
F2036       F  0.93457122  0.81665009  0.45144064    -0.20000
C2037       C  0.00287020  0.73712529  0.54567866    -0.21400
C2038       C  0.97386961  0.74742058  0.54331702    -0.09500
C2039       C  0.96039098  0.75735258  0.56195000     0.29400
C2040       C  0.97731002  0.75912970  0.58229771    -0.21400
C2041       C  0.50870997  0.75221744  0.58423972    -0.09500
C2042       C  0.52060527  0.73999471  0.56585350     0.29400
F2043       F  0.55071307  0.73282892  0.56698303    -0.20000
H2044       H  0.01380723  0.72957549  0.53149523     0.17700
H2045       H  0.96765826  0.76870442  0.59612058     0.17800
F2046       F  0.93207656  0.76706585  0.56025885    -0.20000
C2047       C  0.82814988  0.84321043  0.48469036    -0.21400
C2048       C  0.81539413  0.83631665  0.46297003    -0.09500
C2049       C  0.83622577  0.86579229  0.44577691     0.29400
C2050       C  0.86977574  0.90046545  0.45015053    -0.21400
C2051       C  0.88339822  0.90646665  0.47158518    -0.09500
C2052       C  0.86213808  0.87795190  0.48897561     0.29400
F2053       F  0.87468629  0.88335478  0.50991359    -0.20000
H2054       H  0.81270351  0.82108874  0.49820556     0.17700
H2055       H  0.88579200  0.92246324  0.43665448     0.17800
F2056       F  0.82446693  0.86111235  0.42464535    -0.20000
C2057       C  0.55975262  0.56975427  0.46394744    -0.21400
C2058       C  0.52956412  0.54945587  0.48020876    -0.09500
C2059       C  0.53378614  0.56400014  0.50111587     0.29400
C2060       C  0.56778148  0.59797284  0.50581841    -0.21400
C2061       C  0.59845470  0.61866343  0.48973237    -0.09500
C2062       C  0.59392010  0.60423175  0.46855857     0.29400
F2063       F  0.62213215  0.62336936  0.45224782    -0.20000
H2064       H  0.55665992  0.55902899  0.44766023     0.17700
H2065       H  0.56982691  0.60809290  0.52219825     0.17800
F2066       F  0.50492677  0.54503072  0.51711879    -0.20000
C2067       C  0.63299735  0.69581394  0.55795237    -0.21400
C2068       C  0.66658417  0.71618236  0.54375880    -0.09500
C2069       C  0.69802492  0.75140386  0.55033443     0.29400
C2070       C  0.69475497  0.76676953  0.56987675    -0.21400
C2071       C  0.66023998  0.74756995  0.58333178    -0.09500
C2072       C  0.62969820  0.71123840  0.57742990     0.29400
F2073       F  0.59614615  0.69089908  0.59013332    -0.20000
H2074       H  0.60843006  0.66838677  0.55365363     0.17700
H2075       H  0.71889475  0.79462627  0.57401449     0.17800
F2076       F  0.73161899  0.77177362  0.53768370    -0.20000
C2077       C  0.59014904  0.98313294  0.48419028    -0.21400
C2078       C  0.59870547  0.97601482  0.46299463    -0.09500
C2079       C  0.57098352  0.96734417  0.44663552     0.29400
C2080       C  0.53641812  0.96727607  0.45118607    -0.21400
C2081       C  0.52858687  0.97580484  0.47202349    -0.09500
C2082       C  0.55538820  0.98319504  0.48868005     0.29400
F2083       F  0.54812300  0.99082618  0.50912184    -0.20000
H2084       H  0.61093138  0.98994108  0.49705874     0.17700
H2085       H  0.51578053  0.96106122  0.43826505     0.17800
F2086       F  0.57719653  0.95897373  0.42615071    -0.20000
C2087       C  0.86637019  0.48861950  0.46190883    -0.21400
C2088       C  0.88477052  0.97890332  0.47892468    -0.09500
C2089       C  0.86810182  0.96910165  0.50044888     0.29400
C2090       C  0.83359263  0.96885391  0.50504165    -0.21400
C2091       C  0.81442499  0.97809795  0.48824736    -0.09500
C2092       C  0.83130987  0.48819090  0.46645198     0.29400
F2093       F  0.81411851  0.49731264  0.44960792    -0.20000
H2094       H  0.87911139  0.49627132  0.44519757     0.17700
H2095       H  0.82181933  0.96102146  0.52195211     0.17800
F2096       F  0.88571721  0.96026947  0.51719146    -0.20000
C2097       C  0.73581262  0.94677154  0.56130290    -0.21400
C2098       C  0.71005442  0.94002968  0.54405048    -0.09500
C2099       C  0.67032855  0.91232443  0.54820258     0.29400
C2100       C  0.65750354  0.88949196  0.56844418    -0.21400
C2101       C  0.68384563  0.89391499  0.58507608    -0.09500
C2102       C  0.72294528  0.92430102  0.58165465     0.29400
F2103       F  0.74945264  0.93065593  0.59728228    -0.20000
H2104       H  0.76652402  0.96831405  0.55865439     0.17700
H2105       H  0.62712631  0.86674246  0.57058160     0.17800
F2106       F  0.64441808  0.90475123  0.53208341    -0.20000
C2107       C  0.95185086  0.69315130  0.38860639    -0.21400
C2108       C  0.94083892  0.70817130  0.40589849    -0.09500
C2109       C  0.91733175  0.72498820  0.40136543     0.29400
C2110       C  0.90181282  0.72278520  0.38056264    -0.21400
C2111       C  0.90994140  0.70443811  0.36393359    -0.09500
C2112       C  0.93669545  0.69138656  0.36772703     0.29400
F2113       F  0.94492919  0.67309770  0.35211356    -0.20000
H2114       H  0.97032971  0.68050657  0.39162139     0.17700
H2115       H  0.88139438  0.73318466  0.37788483     0.17800
F2116       F  0.90618150  0.74009933  0.41749895    -0.20000
C2117       C  0.79035056  0.73882383  0.37688757    -0.21400
C2118       C  0.75762068  0.70548362  0.36979094    -0.09500
C2119       C  0.72239698  0.68848376  0.38271444     0.29400
C2120       C  0.72089977  0.70325665  0.40282480    -0.21400
C2121       C  0.75407962  0.73567843  0.41030157    -0.09500
C2122       C  0.78865930  0.75403159  0.39674641     0.29400
F2123       F  0.82151682  0.78580801  0.40295019    -0.20000
H2124       H  0.81778932  0.75275502  0.36731607     0.17700
H2125       H  0.69373839  0.68897112  0.41267121     0.17800
F2126       F  0.68954166  0.65692527  0.37632973    -0.20000
C2127       C  0.74474668  0.54319006  0.40367345    -0.21400
C2128       C  0.70465921  0.51684310  0.40753149    -0.09500
C2129       C  0.67963278  0.51065649  0.38990832     0.29400
C2130       C  0.69391996  0.53293033  0.36963255    -0.21400
C2131       C  0.73338277  0.56202440  0.36643015    -0.09500
C2132       C  0.75907852  0.56566559  0.38338546     0.29400
F2133       F  0.79775822  0.59241899  0.38090762    -0.20000
H2134       H  0.76479295  0.04837557  0.41693572     0.17700
H2135       H  0.67344455  0.52898710  0.35692219     0.17800
F2136       F  0.64091379  0.48418071  0.39250995    -0.20000
C2137       C  0.76947648  0.80709259  0.15094815    -0.21400
C2138       C  0.78005422  0.80603367  0.12885530    -0.09500
C2139       C  0.75421594  0.80324847  0.11218687     0.29400
C2140       C  0.71950418  0.80244691  0.11749234    -0.21400
C2141       C  0.70952549  0.80439330  0.13936809    -0.09500
C2142       C  0.73456746  0.80646750  0.15617823     0.29400
F2143       F  0.72545294  0.80824928  0.17752149    -0.20000
H2144       H  0.78861644  0.80928775  0.16413698     0.17700
H2145       H  0.70038887  0.80077678  0.10437423     0.17800
F2146       F  0.76225663  0.80132274  0.09065274    -0.20000
C2147       C  0.86553007  0.85314366  0.05842643    -0.21400
C2148       C  0.88402589  0.83865316  0.07277104    -0.09500
C2149       C  0.91896283  0.84108090  0.06518582     0.29400
C2150       C  0.93628621  0.86038501  0.04450122    -0.21400
C2151       C  0.91950529  0.87808334  0.03126296    -0.09500
C2152       C  0.88317442  0.87296264  0.03802699     0.29400
F2153       F  0.86584516  0.88925036  0.02550313    -0.20000
H2154       H  0.83839557  0.85134939  0.06348747     0.17700
H2155       H  0.96443686  0.86424361  0.03966691     0.17800
F2156       F  0.93750595  0.82667019  0.07809203    -0.20000
C2157       C  0.51950387  0.80952953  0.17262259    -0.21400
C2158       C  0.49571737  0.80824223  0.15514318    -0.09500
C2159       C  0.50863657  0.80869695  0.13329474     0.29400
C2160       C  0.54407178  0.80958042  0.12932395    -0.21400
C2161       C  0.56701116  0.81013174  0.14700207    -0.09500
C2162       C  0.55458495  0.81036608  0.16862667     0.29400
F2163       F  0.57611566  0.81045316  0.18599158    -0.20000
H2164       H  0.51075065  0.80933312  0.18961129     0.17700
H2165       H  0.55335315  0.80921373  0.11254055     0.17800
F2166       F  0.48661119  0.80694691  0.11588024    -0.20000
C2167       C  0.84993564  0.74279931  0.21375194    -0.21400
C2168       C  0.88979494  0.77024831  0.21008016    -0.09500
C2169       C  0.91473786  0.77772289  0.22780695     0.29400
C2170       C  0.90081519  0.75539579  0.24804979    -0.21400
C2171       C  0.86180119  0.72505144  0.25106822    -0.09500
C2172       C  0.83593496  0.72027653  0.23402771     0.29400
F2173       F  0.79757624  0.69241899  0.23639966    -0.20000
H2174       H  0.83004365  0.73680322  0.20044876     0.17700
H2175       H  0.92132922  0.76034740  0.26088472     0.17800
F2176       F  0.95311121  0.80543949  0.22526960    -0.20000
C2177       C  0.75094254  0.92591086  0.17473059    -0.21400
C2178       C  0.77710038  0.95072576  0.15729116    -0.09500
C2179       C  0.76993540  0.93829961  0.13563528     0.29400
C2180       C  0.73747884  0.90196339  0.13173201    -0.21400
C2181       C  0.71160011  0.87772578  0.14923557    -0.09500
C2182       C  0.71854208  0.88996475  0.17076178     0.29400
F2183       F  0.69325233  0.86751304  0.18788959    -0.20000
H2184       H  0.75520123  0.93440790  0.19156863     0.17700
H2185       H  0.73182847  0.89320679  0.11497124     0.17800
F2186       F  0.79335527  0.96163632  0.11812473    -0.20000
C2187       C  0.87349168  0.59736949  0.23776441    -0.21400
C2188       C  0.83802291  0.58053908  0.25027428    -0.09500
C2189       C  0.80506838  0.54772319  0.24276372     0.29400
C2190       C  0.80741465  0.53319040  0.22285219    -0.21400
C2191       C  0.84233228  0.55116016  0.20980474    -0.09500
C2192       C  0.87567249  0.58314988  0.21763779     0.29400
F2193       F  0.91020236  0.60129320  0.20576497    -0.20000
H2194       H  0.89937058  0.62262768  0.24310169     0.17700
H2195       H  0.78110121  0.00873955  0.21712996     0.17800
F2196       F  0.77004437  0.53043865  0.25410040    -0.20000
C2197       C  0.52173827  0.69269326  0.11234591    -0.21400
C2198       C  0.99512122  0.66800312  0.12962720    -0.09500
C2199       C  0.50322536  0.67917711  0.15152896     0.29400
C2200       C  0.53781452  0.71339555  0.15585225    -0.21400
C2201       C  0.56441195  0.73705453  0.13847669    -0.09500
C2202       C  0.55583353  0.72686397  0.11669770     0.29400
F2203       F  0.58072767  0.75005205  0.09960485    -0.20000
H2204       H  0.01637791  0.68557934  0.09530126     0.17700
H2205       H  0.54405838  0.72130870  0.17273361     0.17800
F2206       F  0.97825545  0.65699917  0.16880136    -0.20000
C2207       C  0.94811137  0.59849493  0.05799449    -0.21400
C2208       C  0.92317468  0.57198759  0.07537397    -0.09500
C2209       C  0.89783878  0.53257081  0.07109130     0.29400
C2210       C  0.89935703  0.51978387  0.05041141    -0.21400
C2211       C  0.92549913  0.54584632  0.03350772    -0.09500
C2212       C  0.94921733  0.58556914  0.03716578     0.29400
F2213       F  0.47547410  0.61110289  0.02122984    -0.20000
H2214       H  0.96776649  0.62901265  0.06071297     0.17700
H2215       H  0.88119334  0.48890631  0.04785173     0.17800
F2216       F  0.87321452  0.50563858  0.08714630    -0.20000
C2217       C  0.63525656  0.71103637  0.12943323    -0.21400
C2218       C  0.63363627  0.73182051  0.14693217    -0.09500
C2219       C  0.62789943  0.71513148  0.16869733     0.29400
C2220       C  0.62515956  0.67876564  0.17305398    -0.21400
C2221       C  0.62828759  0.65818013  0.15579804    -0.09500
C2222       C  0.63252602  0.67432133  0.13376745     0.29400
F2223       F  0.63527668  0.65544608  0.11651710    -0.20000
H2224       H  0.63900629  0.72344026  0.11251210     0.17700
H2225       H  0.62131498  0.66709657  0.19014152     0.17800
F2226       F  0.62535839  0.73438644  0.18582264    -0.20000
C2227       C  0.69905651  0.57098819  0.23575780    -0.21400
C2228       C  0.68924680  0.58740909  0.25286782    -0.09500
C2229       C  0.66111233  0.59871916  0.24920373     0.29400
C2230       C  0.64498071  0.59568229  0.22848680    -0.21400
C2231       C  0.65629436  0.58116847  0.21104728    -0.09500
C2232       C  0.68267391  0.56768928  0.21506660     0.29400
F2233       F  0.69506406  0.55427607  0.19858618    -0.20000
H2234       H  0.72085117  0.56231705  0.23807914     0.17700
H2235       H  0.62473825  0.60629185  0.22580172     0.17800
F2236       F  0.65154303  0.61575920  0.26496235    -0.20000
C2237       C  0.64611243  0.93247991  0.11350334    -0.21400
C2238       C  0.64192334  0.95257473  0.13069687    -0.09500
C2239       C  0.64005185  0.93784161  0.15281168     0.29400
C2240       C  0.64007388  0.90257801  0.15735802    -0.21400
C2241       C  0.64239598  0.88198826  0.13999906    -0.09500
C2242       C  0.64635339  0.89757690  0.11809315     0.29400
F2243       F  0.64941151  0.87834137  0.10110007    -0.20000
H2244       H  0.64823950  0.94324014  0.09635113     0.17700
H2245       H  0.63745430  0.89088887  0.17435081     0.17800
F2246       F  0.63649340  0.95638533  0.16998912    -0.20000
C2247       C  0.55588945  0.02886918  0.05299431    -0.21400
C2248       C  0.56114906  0.00778093  0.03673150    -0.09500
C2249       C  0.58857248  0.49551737  0.04017647     0.29400
C2250       C  0.60815561  0.50188672  0.05984915    -0.21400
C2251       C  0.60105017  0.02049112  0.07666545    -0.09500
C2252       C  0.57552191  0.03513088  0.07280765     0.29400
F2253       F  0.56721640  0.05284704  0.08871930    -0.20000
H2254       H  0.03490908  0.03867488  0.05096496     0.17700
H2255       H  0.62805641  0.49077024  0.06219032     0.17800
F2256       F  0.59550249  0.47566177  0.02499175    -0.20000
loop_ 
_geom_bond_atom_site_label_1 
_geom_bond_atom_site_label_2 
_geom_bond_distance 
_geom_bond_site_symmetry_2 
_ccdc_geom_bond_type 
C1            N6   1.355       .  A
C1          N566   1.360       .  A
C1          C559   1.483       .  S
N2            C3   1.362       .  A
N2          C565   1.360       .  A
C3          N568   1.361       .  A
C3           C11   1.470       .  S
N4            C5   1.358       .  A
N4          C567   1.361       .  A
C5            N6   1.355       .  A
C5          C546   1.484       .  S
C7            N8   1.354       .  A
C7           N12   1.358       .  A
C7          C539   1.480       .  S
N8            C9   1.356       .  A
C9           N10   1.360       .  A
C9          C529   1.485       .  S
N10          C11   1.362       .  A
C11          N12   1.362       .  A
C13          N14   1.356       .  A
C13          N18   1.358       .  A
C13         C516   1.483       .  S
N14          C15   1.355       .  A
C15          N16   1.361       .  A
C15          C23   1.468       .  S
N16          C17   1.361       .  A
C17          N18   1.360       .  A
C17         C506   1.490       .  S
C19          N24   1.356       .  A
C19         N584   1.355       .  A
C19         C499   1.477       .  S
N20          C21   1.356       .  A
N20         C583   1.356       .  A
C21          N22   1.361       .  A
C21         C486   1.489       .  S
N22         C587   1.363       .  A
C23          N24   1.356       .  A
C23         N586   1.363       .  A
C25          N26   1.359       .  A
C25          N30   1.354       .  A
C25         C476   1.480       .  S
N26          C27   1.362       .  A
C27          N28   1.365       .  A
C27          C35   1.475       .  S
N28          C29   1.362       .  A
C29          N30   1.356       .  A
C29        C1594   1.491       .  S
C31          N32   1.357       .  A
C31          N36   1.362       .  A
C31         C446   1.492       .  S
N32          C33   1.357       .  A
C33          N34   1.359       .  A
C33         C456   1.488       .  S
N34          C35   1.361       .  A
C35          N36   1.364       .  A
C37         C449   1.485       .  S
C37          C38   1.412       .  A
C37          C42   1.415       .  A
C38         C489   1.483       .  S
C38          C39   1.411       .  A
C39         C549   1.478       .  S
C39          C40   1.410       .  A
C40         C469   1.485       .  S
C40          C41   1.408       .  A
C41         C509   1.483       .  S
C41          C42   1.413       .  A
C42         C526   1.481       .  S
O43         Ni49   1.937       .  S
O43          C64   1.274       .  A
O44         Ni67   1.886       .  S
O44          C53   1.266       .  A
O45         Ni49   1.919       .  S
O45         Ni67   1.897       .  S
O45         Ni61   1.914       .  S
O45          H68   0.969       .  S
C46         C496   1.477       .  S
C46          O63   1.265       .  A
C46          O55   1.273       .  A
O47         Ni66   1.928       .  S
O47          C53   1.272       .  A
O48         Ni66   1.911       .  S
O48          C50   1.274       .  A
Ni49         O52   1.937       .  S
Ni49         O54   1.917       .  S
C50         C479   1.486       .  S
C50          O60   1.276       .  A
O51         Ni67   1.902       .  S
O51          C57   1.268       .  A
O52          C57   1.272       .  A
C53         C419   1.470       .  S
O54          C56   1.277       .  A
O55         Ni66   1.934       .  S
C56         C439   1.489       .  S
C56          O62   1.278       .  A
C57         C426   1.484       .  S
H58          O59   0.966       .  S
O59         Ni67   1.908       .  S
O59         Ni61   1.894       .  S
O59         Ni66   1.920       .  S
O60         Ni61   1.940       .  S
Ni61         O65   1.887       .  S
Ni61         O63   1.892       .  S
O62         Ni67   1.943       .  S
C64         C536   1.481       .  S
C64          O65   1.264       .  A
C69          N70   1.356       .  A
C69         N638   1.361       .  A
C69         C399   1.490       .  S
N70          C71   1.353       .  A
C71          N72   1.362       .  A
C71         C406   1.487       .  S
N72          C73   1.366       .  A
C73         N638   1.364       .  A
C73          C79   1.480       .  S
N74         C633   1.361       .  A
N74         C637   1.364       .  A
C75          N76   1.355       .  A
C75          N80   1.362       .  A
C75         C386   1.484       .  S
N76          C77   1.355       .  A
C77          N78   1.362       .  A
C77        C1000   1.486       .  S
N78          C79   1.365       .  A
C79          N80   1.364       .  A
C81          N82   1.357       .  A
C81          N86   1.358       .  A
C81         C376   1.489       .  S
N82          C83   1.359       .  A
C83          N84   1.361       .  A
C83         C369   1.492       .  S
N84          C85   1.362       .  A
C85          N86   1.359       .  A
C85          C91   1.472       .  S
C87          N88   1.354       .  A
C87          N92   1.360       .  A
C87         C429   1.483       .  S
N88          C89   1.354       .  A
C89          N90   1.360       .  A
C89         C356   1.481       .  S
N90          C91   1.362       .  A
C91          N92   1.361       .  A
C93          N94   1.355       .  A
C93          N98   1.355       .  A
C93         C346   1.473       .  S
N94          C95   1.357       .  A
C95          N96   1.362       .  A
C95        C1229   1.466       .  S
N96          C97   1.360       .  A
C97          N98   1.358       .  A
C97         C336   1.490       .  S
C99         N100   1.356       .  A
C99         N104   1.356       .  A
C99         C416   1.475       .  S
N100       C1229   1.357       .  A
C101        N102   1.361       .  A
C101       N1228   1.357       .  A
C101       C1223   1.466       .  S
N102        C103   1.359       .  A
C103       N1232   1.356       .  A
C103       C1457   1.482       .  S
N104       C1231   1.356       .  A
C105        C359   1.482       .  S
C105        C106   1.410       .  A
C105        C110   1.411       .  A
C106        C396   1.483       .  S
C106        C671   1.411       .  A
C107        C326   1.484       .  S
C107        C108   1.415       .  A
C107        C670   1.411   1_545  A
C108       C1494   1.487       .  S
C108        C673   1.415   1_545  A
C109       C1517   1.486       .  S
C109        C110   1.414       .  A
C109        C672   1.415       .  A
C110        C339   1.486       .  S
C111        N112   1.353       .  A
C111        N116   1.357       .  A
C111        C319   1.478       .  S
N112        C113   1.356       .  A
C113        N114   1.363       .  A
C113        C306   1.491       .  S
N114        C115   1.364       .  A
C115        N116   1.362       .  A
C115        C121   1.473       .  S
C117        N118   1.354       .  A
C117        N122   1.362       .  A
C117        C296   1.479       .  S
N118        C119   1.353       .  A
C119        N120   1.357       .  A
C119        C853   1.479       .  S
N120        C121   1.361       .  A
C121        N122   1.363       .  A
C123        N124   1.357       .  A
C123        N128   1.358       .  A
C123        C279   1.484       .  S
N124        C125   1.357       .  A
C125        N126   1.360       .  A
C125        C830   1.491       .  S
N126        C127   1.363       .  A
C127        N128   1.358       .  A
C127        C133   1.469       .  S
C129        N130   1.358       .  A
C129       N1262   1.356       .  A
C129        C256   1.483       .  S
N130        C131   1.360       .  A
C131        N132   1.361       .  A
C131        C246   1.486       .  S
N132       C1261   1.360       .  A
C133        N134   1.355       .  A
C133       N1260   1.360   1_455  A
N134       C1257   1.356   1_455  A
C135        N136   1.362       .  A
C135        N140   1.359       .  A
C135        C226   1.492       .  S
N136        C137   1.363       .  A
C137        N138   1.363       .  A
C137       C1271   1.478       .  S
N138        C139   1.360       .  A
C139        N140   1.358       .  A
C139        C236   1.495       .  S
C141        N146   1.355       .  A
C141       N1270   1.362       .  A
C141       C1344   1.483       .  S
N142       C1269   1.362       .  A
N142       C1271   1.364       .  A
C143        N144   1.363       .  A
C143       N1270   1.364       .  A
C143       C1265   1.478       .  S
N144        C145   1.360       .  A
C145        N146   1.356       .  A
C145        C206   1.491       .  S
C147        C229   1.486       .  S
C147        C148   1.416       .  A
C147        C152   1.412       .  A
C148        C309   1.483       .  S
C148        C149   1.413       .  A
C149        C249   1.482       .  S
C149        C150   1.410       .  A
C150        C209   1.484       .  S
C150        C151   1.408       .  A
C151        C286   1.479       .  S
C151        C152   1.411       .  A
C152        C269   1.484       .  S
O153       Ni159   1.951       .  S
O153        C174   1.276   1_556  A
O154       Ni177   1.883       .  S
O154        C163   1.261       .  A
O155       Ni177   1.893       .  S
O155       Ni171   1.904       .  S
O155       Ni723   1.919       .  S
O155        H178   0.966       .  S
C156        C556   1.488       .  S
C156        O173   1.275       .  A
C156        O165   1.277       .  A
O157       Ni176   1.944       .  S
O157        C163   1.273       .  A
O158       Ni176   1.916   1_554  S
O158        C160   1.270       .  A
Ni159       O164   1.923       .  S
Ni159       O726   1.930   1_545  S
Ni159       O719   1.919   1_545  S
C160        C459   1.475       .  S
C160        O170   1.268       .  A
O161       Ni177   1.908       .  S
O161        C167   1.273       .  A
O162       Ni723   1.931       .  S
O162        C167   1.279       .  A
C163        C259   1.463       .  S
O164        C166   1.272       .  A
O165      Ni1304   1.926   1_554  S
C166       C1367   1.479       .  S
C166        O172   1.270       .  A
C167        C299   1.486       .  S
H168       O1297   0.966   1_455  S
O169       Ni177   1.902       .  S
O169       Ni171   1.896       .  S
O169       Ni176   1.922       .  S
O169       H1296   0.966       .  S
O170       Ni171   1.911   1_554  S
Ni171       O739   1.882   1_556  S
Ni171      O1301   1.915   1_556  S
O172       Ni741   1.914   1_545  S
O173      Ni1299   1.915   1_454  S
C174        C519   1.467       .  S
C174        O175   1.262       .  A
O175       Ni735   1.883   1_544  S
Ni176      O1293   1.926   1_556  S
Ni177       O736   1.914       .  S
O179       Ni185   1.937       .  S
O179        C200   1.275       .  A
O180       Ni203   1.887       .  S
O180        C189   1.264       .  A
O181       Ni185   1.924       .  S
O181       Ni203   1.894       .  S
O181       Ni197   1.911       .  S
O181        H204   0.966       .  S
C182        C379   1.486       .  S
C182        O199   1.266       .  A
C182        O191   1.275       .  A
O183       Ni202   1.942       .  S
O183        C189   1.276       .  A
O184       Ni202   1.918       .  S
O184        C186   1.276       .  A
Ni185       O188   1.943       .  S
Ni185       O190   1.917       .  S
C186        C409   1.493       .  S
C186        O196   1.278       .  A
O187       Ni203   1.896       .  S
O187        C193   1.266       .  A
O188        C193   1.274       .  A
C189        C316   1.483       .  S
O190        C192   1.275       .  A
O191       Ni202   1.945       .  S
C192        C219   1.490       .  S
C192        O198   1.276       .  A
C193        C276   1.483       .  S
H194        O195   0.970       .  S
O195       Ni203   1.914       .  S
O195       Ni197   1.896       .  S
O195       Ni202   1.922       .  S
O196       Ni197   1.944       .  S
Ni197       O201   1.886       .  S
Ni197       O199   1.900       .  S
O198       Ni203   1.938       .  S
C200        C349   1.479       .  S
C200        O201   1.264       .  A
C205        C206   1.409       .  A
C205        C210   1.393       .  A
C205        H212   1.083       .  S
C206        C207   1.413       .  A
C207        C208   1.405       .  A
C207        F214   1.357       .  S
C208        C209   1.403       .  A
C208        H213   1.083       .  S
C209        C210   1.400       .  A
C210        F211   1.358       .  S
C215        C216   1.402       .  A
C215        C220   1.401       .  A
C215        H222   1.083       .  S
C216       C1269   1.483       .  S
C216        C217   1.409   1_455  A
C217        C218   1.399   1_655  A
C217       F1352   1.358       .  S
C218        C219   1.405       .  A
C218        H223   1.083   1_455  S
C219        C220   1.415       .  A
C220        F221   1.358       .  S
F224       C1345   1.358       .  S
C225        C226   1.408       .  A
C225        C230   1.395       .  A
C225        H232   1.083       .  S
C226        C227   1.413       .  A
C227        C228   1.406       .  A
C227        F234   1.357       .  S
C228        C229   1.403       .  A
C228        H233   1.083       .  S
C229        C230   1.400       .  A
C230        F231   1.358       .  S
C235        C236   1.409       .  A
C235        C240   1.397       .  A
C235        H242   1.083       .  S
C236        C237   1.413   1_455  A
C237        C238   1.405       .  A
C237        F244   1.357       .  S
C238        C239   1.405       .  A
C238        H243   1.083       .  S
C239       C1294   1.479       .  S
C239        C240   1.404   1_655  A
C240       F1369   1.358       .  S
F241       C1368   1.358       .  S
C245        C246   1.407       .  A
C245        C250   1.395       .  A
C245        H252   1.083       .  S
C246        C247   1.412       .  A
C247        C248   1.402       .  A
C247        F254   1.357       .  S
C248        C249   1.401       .  A
C248        H253   1.083       .  S
C249        C250   1.401       .  A
C250        F251   1.358       .  S
C255        C256   1.410       .  A
C255        C260   1.400       .  A
C255        H262   1.083       .  S
C256       C1385   1.410       .  A
C257        C258   1.392       .  A
C257       C1384   1.410   1_455  A
C257        F264   1.357       .  S
C258       C1387   1.399   1_455  A
C258        H263   1.084       .  S
C259        C260   1.401       .  A
C259       C1386   1.399       .  A
C260        F261   1.357       .  S
C265        C266   1.409   1_545  A
C265        C270   1.393       .  A
C265        H272   1.083       .  S
C266        C689   1.490       .  S
C266        C267   1.413   1_565  A
C267        C268   1.403       .  A
C267        F838   1.356   1_545  S
C268        C269   1.402       .  A
C268        H273   1.083       .  S
C269        C270   1.401       .  A
C270        F271   1.358       .  S
F274        C831   1.356       .  S
C275        C276   1.408       .  A
C275        C280   1.400       .  A
C275        H282   1.083       .  S
C276        C277   1.408       .  A
C277        C278   1.393       .  A
C277        F284   1.357       .  S
C278        C279   1.406       .  A
C278        H283   1.083       .  S
C279        C280   1.409       .  A
C280        F281   1.358       .  S
C285        C286   1.398       .  A
C285        C290   1.392       .  A
C285        H292   1.084       .  S
C286        C287   1.403       .  A
C287        C288   1.401       .  A
C287        F294   1.356       .  S
C288        C289   1.407   1_545  A
C288        H293   1.083       .  S
C289        C683   1.480       .  S
C289        C290   1.409   1_565  A
C290        F291   1.357       .  S
C295        C296   1.403       .  A
C295        C300   1.401       .  A
C295        H302   1.083       .  S
C296        C297   1.408       .  A
C297        C298   1.394       .  A
C297        F304   1.358       .  S
C298        C299   1.405       .  A
C298        H303   1.083       .  S
C299        C300   1.414       .  A
C300        F301   1.358       .  S
C305        C306   1.410       .  A
C305        C310   1.405       .  A
C305        H312   1.083       .  S
C306        C307   1.414       .  A
C307        C308   1.392       .  A
C307        F314   1.357       .  S
C308        C309   1.397       .  A
C308        H313   1.084       .  S
C309        C310   1.404       .  A
C310        F311   1.357       .  S
C315        C316   1.404       .  A
C315        C320   1.397       .  A
C315        H322   1.083       .  S
C316        C317   1.412       .  A
C317        C318   1.400       .  A
C317        F324   1.357       .  S
C318        C319   1.403       .  A
C318        H323   1.083       .  S
C319        C320   1.407       .  A
C320        F321   1.357       .  S
C325        C326   1.400       .  A
C325        C330   1.394       .  A
C325        H332   1.084       .  S
C326        C327   1.405       .  A
C327        C328   1.400       .  A
C327        F334   1.356       .  S
C328        C329   1.407       .  A
C328       H1461   1.083       .  S
C329       C1231   1.482       .  S
C329        C330   1.410       .  A
C330        F331   1.357       .  S
H333       C1456   1.083       .  S
C335        C336   1.408       .  A
C335        C340   1.393       .  A
C335        H342   1.083       .  S
C336        C337   1.413       .  A
C337        C338   1.404       .  A
C337        F344   1.357       .  S
C338        C339   1.403       .  A
C338        H343   1.083       .  S
C339        C340   1.401       .  A
C340        F341   1.358       .  S
C345        C346   1.403       .  A
C345       C1478   1.396       .  A
C345        H352   1.083       .  S
C346        C347   1.405       .  A
C347        C348   1.397       .  A
C347        F354   1.358       .  S
C348       C1477   1.405       .  A
C348        H353   1.083       .  S
C349        C350   1.410       .  A
C349       C1476   1.405   1_455  A
C350       C1473   1.396       .  A
C350        F351   1.358       .  S
C355        C356   1.407       .  A
C355        C360   1.401       .  A
C355        H362   1.083       .  S
C356        C357   1.411       .  A
C357        C358   1.393       .  A
C357        F364   1.358       .  S
C358        C359   1.398       .  A
C358        H363   1.084       .  S
C359        C360   1.404       .  A
C360        F361   1.356       .  S
C365        C366   1.403       .  A
C365        C370   1.405       .  A
C365        H372   1.083       .  S
C366       C1236   1.487   1_455  S
C366        C367   1.402       .  A
C367        C368   1.393       .  A
C367        F374   1.358       .  S
C368        C369   1.408       .  A
C368        H373   1.083       .  S
C369        C370   1.414       .  A
C370        F371   1.357       .  S
C375        C376   1.408       .  A
C375        C380   1.397       .  A
C375        H382   1.083       .  S
C376        C377   1.410       .  A
C377        C378   1.400       .  A
C377        F384   1.357       .  S
C378        C379   1.406       .  A
C378        H383   1.083       .  S
C379        C380   1.409       .  A
C380        F381   1.358       .  S
C385        C386   1.407       .  A
C385        C390   1.404       .  A
C385        H392   1.083       .  S
C386        C387   1.410       .  A
C387        C388   1.394       .  A
C387        F394   1.357       .  S
C388        C389   1.400       .  A
C388        H393   1.084       .  S
C389       C1237   1.486   1_455  S
C389        C390   1.405       .  A
C390        F391   1.356       .  S
C395        C400   1.406       .  A
C395        C960   1.404       .  A
C395        H402   1.083       .  S
C396        C397   1.398       .  A
C396        C959   1.404       .  A
C397        C398   1.389       .  A
C397        F404   1.358       .  S
C398        C399   1.409       .  A
C398        H403   1.083       .  S
C399        C964   1.414       .  A
C400        C963   1.414       .  A
C400        F401   1.357       .  S
C405        C406   1.409       .  A
C405        C410   1.401       .  A
C405        H412   1.083       .  S
C406        C407   1.405       .  A
C407        C408   1.402       .  A
C407        F414   1.357       .  S
C408        C409   1.411       .  A
C408        H413   1.083       .  S
C409        C410   1.409       .  A
C410        F411   1.358       .  S
C415        C416   1.405       .  A
C415        C420   1.395       .  A
C415        H422   1.083       .  S
C416        C417   1.408       .  A
C417        C418   1.394       .  A
C417        F424   1.357       .  S
C418        C419   1.403       .  A
C418        H423   1.084       .  S
C419        C420   1.406       .  A
C420        F421   1.358       .  S
C425        C426   1.404       .  A
C425        C430   1.395       .  A
C425        H432   1.083       .  S
C426        C427   1.412       .  A
C427        C428   1.398       .  A
C427        F434   1.357       .  S
C428        C429   1.404       .  A
C428        H433   1.083       .  S
C429        C430   1.411       .  A
C430        F431   1.358       .  S
C435        C436   1.404       .  A
C435        C440   1.402       .  A
C435       H1006   1.083       .  S
C436        C641   1.486   1_545  S
C436        C437   1.410       .  A
C437        C438   1.398       .  A
C437        F444   1.357   1_545  S
C438        C439   1.404       .  A
C438        H443   1.083       .  S
C439        C440   1.414       .  A
C440        F441   1.358       .  S
H442        C999   1.083       .  S
C445        C446   1.410       .  A
C445        C450   1.405       .  A
C445        H452   1.083       .  S
C446        C447   1.413       .  A
C447        C448   1.395       .  A
C447        F454   1.357       .  S
C448        C449   1.399       .  A
C448        H453   1.084       .  S
C449        C450   1.404       .  A
C450        F451   1.357       .  S
C455        C456   1.408       .  A
C455        C460   1.394       .  A
C455        H462   1.083       .  S
C456        C457   1.411       .  A
C457        C458   1.402       .  A
C457        F464   1.357       .  S
C458        C459   1.404       .  A
C458        H463   1.083       .  S
C459        C460   1.404       .  A
C460        F461   1.358       .  S
C465        C466   1.409   1_455  A
C465        C470   1.393       .  A
C465        H472   1.083       .  S
C466       C1157   1.491       .  S
C466        C467   1.412   1_655  A
C467        C468   1.406       .  A
C467        F474   1.357   1_455  S
C468        C469   1.404       .  A
C468        H473   1.083       .  S
C469        C470   1.400       .  A
C470        F471   1.358       .  S
C475        C476   1.403       .  A
C475        C480   1.401       .  A
C475        H482   1.083       .  S
C476        C477   1.408       .  A
C477        C478   1.396       .  A
C477        F484   1.358       .  S
C478        C479   1.404       .  A
C478        H483   1.083       .  S
C479        C480   1.413       .  A
C480        F481   1.358       .  S
C485        C486   1.409       .  A
C485        C490   1.394       .  A
C485        H492   1.083       .  S
C486        C487   1.412       .  A
C487        C488   1.403       .  A
C487        F494   1.356       .  S
C488        C489   1.401       .  A
C488        H493   1.083       .  S
C489        C490   1.402       .  A
C490        F491   1.358       .  S
C495        C496   1.407       .  A
C495        C500   1.395       .  A
C495        H502   1.083       .  S
C496        C497   1.408       .  A
C497        C498   1.391       .  A
C497        F504   1.358       .  S
C498        C499   1.405       .  A
C498       H1067   1.083       .  S
C499        C500   1.408       .  A
C500        F501   1.357       .  S
H503       C1062   1.083       .  S
C505        C510   1.394       .  A
C505       C1634   1.408   1_455  A
C505       H1640   1.083       .  S
C506       C1633   1.408       .  A
C506       C1635   1.414       .  A
C507        C508   1.403       .  A
C507       C1634   1.414   1_455  A
C507       F1642   1.357   1_455  S
C508        C509   1.401       .  A
C508        H513   1.083       .  S
C509        C510   1.399       .  A
C510        F511   1.358       .  S
H512       C1633   1.083       .  S
F514       C1635   1.357       .  S
C515        C516   1.410       .  A
C515        C520   1.401       .  A
C515        H522   1.083       .  S
C516        C517   1.410       .  A
C517        C518   1.393       .  A
C517        F524   1.358       .  S
C518        C519   1.401       .  A
C518        H523   1.084   1_545  S
C519        C520   1.401       .  A
C520       F1649   1.357       .  S
F521       C1648   1.357       .  S
C525        C526   1.403       .  A
C525        C530   1.404       .  A
C525        H532   1.083       .  S
C526        C527   1.400       .  A
C527        C528   1.391       .  A
C527        F534   1.358       .  S
C528        C529   1.407       .  A
C528        H533   1.083       .  S
C529        C530   1.412       .  A
C530        F531   1.357       .  S
C535        C536   1.408       .  A
C535        C540   1.399       .  A
C535        H542   1.083       .  S
C536        C537   1.407       .  A
C537        C538   1.397       .  A
C537        F544   1.358       .  S
C538        C539   1.406       .  A
C538        H543   1.083       .  S
C539        C540   1.406       .  A
C540        F541   1.357       .  S
C545        C546   1.407       .  A
C545        C550   1.392       .  A
C545        H552   1.083       .  S
C546        C547   1.412       .  A
C547        C548   1.401       .  A
C547        F554   1.357       .  S
C548        C549   1.401       .  A
C548        H553   1.083       .  S
C549        C550   1.400       .  A
C550        F551   1.358       .  S
C555        C556   1.409       .  A
C555        C560   1.402       .  A
C555       H1690   1.083       .  S
C556       C1121   1.410       .  A
C557        C558   1.394   1_565  A
C557       C1120   1.410   1_565  A
C557        F564   1.358       .  S
C558       C1123   1.405       .  A
C558        H563   1.083   1_545  S
C559        C560   1.408       .  A
C559       C1122   1.405       .  A
C560        F561   1.357       .  S
H562       C1683   1.083       .  S
C565        N570   1.355   1_545  A
C565       C1123   1.483       .  S
N566        C567   1.362       .  A
C567        C575   1.470       .  S
N568        C569   1.358   1_545  A
C569        N570   1.355       .  A
C569       C1110   1.483       .  S
C571        N572   1.354       .  A
C571        N576   1.358       .  A
C571       C1103   1.480       .  S
N572        C573   1.356       .  A
C573        N574   1.360       .  A
C573       C1093   1.485       .  S
N574        C575   1.362       .  A
C575        N576   1.361       .  A
C577        N578   1.356       .  A
C577        N582   1.357       .  A
C577       C1080   1.483       .  S
N578        C579   1.355       .  A
C579        N580   1.361       .  A
C579        C587   1.468       .  S
N580        C581   1.361       .  A
C581        N582   1.360       .  A
C581       C1070   1.490       .  S
C583        N588   1.356       .  A
C583       C1063   1.477       .  S
N584        C585   1.355   1_545  A
C585        N586   1.361   1_565  A
C585       C1050   1.489       .  S
C587        N588   1.356       .  A
C589        N590   1.359       .  A
C589        N594   1.355       .  A
C589       C1040   1.480       .  S
N590        C591   1.362       .  A
C591        N592   1.365       .  A
C591        C599   1.475       .  S
N592        C593   1.362       .  A
C593        N594   1.356       .  A
C593       C2158   1.491       .  S
C595        N596   1.357       .  A
C595        N600   1.362       .  A
C595       C1010   1.491       .  S
N596        C597   1.357       .  A
C597        N598   1.359       .  A
C597       C1020   1.487       .  S
N598        C599   1.360       .  A
C599        N600   1.364       .  A
C601       C1013   1.486       .  S
C601        C602   1.413       .  A
C601        C606   1.415       .  A
C602       C1053   1.484       .  S
C602        C603   1.411       .  A
C603       C1113   1.478       .  S
C603        C604   1.409       .  A
C604       C1033   1.485       .  S
C604        C605   1.408       .  A
C605       C1073   1.482       .  S
C605        C606   1.413       .  A
C606       C1090   1.481       .  S
O607       Ni613   1.937       .  S
O607        C628   1.274       .  A
O608       Ni631   1.886       .  S
O608        C617   1.265       .  A
O609       Ni613   1.919       .  S
O609       Ni631   1.897       .  S
O609       Ni625   1.915       .  S
O609        H632   0.969       .  S
C610       C1060   1.477       .  S
C610        O627   1.265       .  A
C610        O619   1.273       .  A
O611       Ni630   1.929       .  S
O611        C617   1.272       .  A
O612       Ni630   1.911       .  S
O612        C614   1.274       .  A
Ni613       O616   1.938       .  S
Ni613       O618   1.917       .  S
C614       C1043   1.486       .  S
C614        O624   1.276       .  A
O615       Ni631   1.902       .  S
O615        C621   1.268       .  A
O616        C621   1.272       .  A
C617        C983   1.470       .  S
O618        C620   1.277       .  A
O619       Ni630   1.935       .  S
C620       C1003   1.489       .  S
C620        O626   1.278       .  A
C621        C990   1.484       .  S
H622        O623   0.966       .  S
O623       Ni631   1.908       .  S
O623       Ni625   1.894       .  S
O623       Ni630   1.920       .  S
O624       Ni625   1.940       .  S
Ni625       O629   1.888       .  S
Ni625       O627   1.893       .  S
O626       Ni631   1.942       .  S
C628       C1100   1.481       .  S
C628        O629   1.264       .  A
C633        N634   1.356       .  A
C633        C963   1.490       .  S
N634        C635   1.353       .  A
C635        N636   1.362       .  A
C635        C970   1.487       .  S
N636        C637   1.365       .  A
C637        C643   1.479       .  S
C639        N640   1.355       .  A
C639        N644   1.362       .  A
C639        C950   1.485       .  S
N640        C641   1.355       .  A
C641        N642   1.362       .  A
N642        C643   1.365       .  A
C643        N644   1.364       .  A
C645        N646   1.357       .  A
C645        N650   1.358       .  A
C645        C940   1.489       .  S
N646        C647   1.359       .  A
C647        N648   1.361       .  A
C647        C933   1.492       .  S
N648        C649   1.362       .  A
C649        N650   1.359       .  A
C649        C655   1.473       .  S
C651        N652   1.354       .  A
C651        N656   1.360       .  A
C651        C993   1.484       .  S
N652        C653   1.354       .  A
C653        N654   1.360       .  A
C653        C920   1.481       .  S
N654        C655   1.362       .  A
C655        N656   1.361       .  A
C657        N658   1.355       .  A
C657        N662   1.355       .  A
C657        C910   1.472       .  S
N658        C659   1.357       .  A
C659        N660   1.362       .  A
C659       C1793   1.466       .  S
N660        C661   1.360       .  A
C661        N662   1.358       .  A
C661        C900   1.489       .  S
C663        N664   1.357       .  A
C663        N668   1.356       .  A
C663        C980   1.475       .  S
N664       C1793   1.357       .  A
C665       N1792   1.357       .  A
C665        N666   1.361       .  A
C665       C1787   1.466       .  S
N666        C667   1.359       .  A
C667       N1796   1.356       .  A
C667       C2021   1.482       .  S
N668       C1795   1.356       .  A
C669        C923   1.482       .  S
C669        C670   1.410       .  A
C669        C674   1.411       .  A
C670        C960   1.483       .  S
C671        C890   1.484       .  S
C671        C672   1.415       .  A
C672       C2058   1.486       .  S
C673       C2081   1.486       .  S
C673        C674   1.415       .  A
C674        C903   1.486       .  S
C675        N676   1.354       .  A
C675        N680   1.357       .  A
C675        C883   1.478       .  S
N676        C677   1.356       .  A
C677        N678   1.363       .  A
C677        C870   1.492       .  S
N678        C679   1.364       .  A
C679        N680   1.362       .  A
C679        C685   1.473       .  S
C681        N682   1.354       .  A
C681        N686   1.362       .  A
C681        C860   1.480       .  S
N682        C683   1.353       .  A
C683        N684   1.357       .  A
N684        C685   1.361       .  A
C685        N686   1.363       .  A
C687        N688   1.356       .  A
C687        N692   1.358       .  A
C687        C843   1.483       .  S
N688        C689   1.356       .  A
C689        N690   1.360       .  A
N690        C691   1.363       .  A
C691        N692   1.358       .  A
C691        C697   1.468       .  S
C693        N694   1.358       .  A
C693       N1826   1.356       .  A
C693        C820   1.483       .  S
N694        C695   1.360       .  A
C695        N696   1.361       .  A
C695        C810   1.486       .  S
N696       C1825   1.360       .  A
C697       N1824   1.360   1_455  A
C697        N698   1.355       .  A
N698       C1821   1.356   1_455  A
C699        N700   1.362       .  A
C699        N704   1.359       .  A
C699        C790   1.492       .  S
N700        C701   1.363       .  A
C701        N702   1.363       .  A
C701       C1835   1.478       .  S
N702        C703   1.360       .  A
C703        N704   1.358       .  A
C703        C800   1.495       .  S
C705       N1834   1.362       .  A
C705        N710   1.355       .  A
C705       C1908   1.483       .  S
N706       C1833   1.362       .  A
N706       C1835   1.364       .  A
C707       N1834   1.364       .  A
C707        N708   1.363       .  A
C707       C1829   1.478       .  S
N708        C709   1.360       .  A
C709        N710   1.356       .  A
C709        C770   1.491       .  S
C711        C793   1.486       .  S
C711        C712   1.416       .  A
C711        C716   1.413       .  A
C712        C873   1.483       .  S
C712        C713   1.414       .  A
C713        C813   1.482       .  S
C713        C714   1.410       .  A
C714        C773   1.485       .  S
C714        C715   1.408       .  A
C715        C850   1.479       .  S
C715        C716   1.411       .  A
C716        C833   1.485       .  S
O717       Ni723   1.951       .  S
O717        C738   1.276   1_556  A
O718       Ni741   1.884       .  S
O718        C727   1.262       .  A
O719       Ni741   1.894       .  S
O719       Ni735   1.905       .  S
O719        H742   0.966       .  S
C720       C1120   1.488   1_565  S
C720        O737   1.276   1_565  A
C720        O729   1.277       .  A
O721       Ni740   1.943       .  S
O721        C727   1.273       .  A
O722       Ni740   1.916   1_554  S
O722        C724   1.270       .  A
Ni723       O728   1.923       .  S
C724       C1023   1.475       .  S
C724        O734   1.268       .  A
O725       Ni741   1.910       .  S
O725        C731   1.273       .  A
O726        C731   1.279       .  A
C727        C823   1.462       .  S
O728        C730   1.272       .  A
O729      Ni1868   1.926   1_554  S
C730       C1931   1.480       .  S
C730        O736   1.269       .  A
C731        C863   1.487       .  S
H732       O1861   0.966   1_445  S
O733       Ni741   1.902       .  S
O733       Ni735   1.896       .  S
O733       Ni740   1.921       .  S
O733       H1860   0.966   1_565  S
O734       Ni735   1.910   1_554  S
Ni735      O1865   1.916   1_566  S
O737      Ni1863   1.916   1_444  S
C738       C1083   1.466       .  S
C738        O739   1.262       .  A
Ni740      O1857   1.926   1_556  S
O743       Ni749   1.936       .  S
O743        C764   1.275       .  A
O744       Ni767   1.888       .  S
O744        C753   1.264       .  A
O745       Ni749   1.924       .  S
O745       Ni767   1.895       .  S
O745       Ni761   1.911       .  S
O745        H768   0.966       .  S
C746        C943   1.486       .  S
C746        O763   1.266       .  A
C746        O755   1.275       .  A
O747       Ni766   1.941       .  S
O747        C753   1.276       .  A
O748       Ni766   1.917       .  S
O748        C750   1.276       .  A
Ni749       O752   1.942       .  S
Ni749       O754   1.917       .  S
C750        C973   1.492       .  S
C750        O760   1.278       .  A
O751       Ni767   1.897       .  S
O751        C757   1.266       .  A
O752        C757   1.274       .  A
C753        C880   1.483       .  S
O754        C756   1.275       .  A
O755       Ni766   1.945       .  S
C756        C783   1.490       .  S
C756        O762   1.276       .  A
C757        C840   1.483       .  S
H758        O759   0.970       .  S
O759       Ni767   1.915       .  S
O759       Ni761   1.896       .  S
O759       Ni766   1.922       .  S
O760       Ni761   1.944       .  S
Ni761       O765   1.886       .  S
Ni761       O763   1.901       .  S
O762       Ni767   1.939       .  S
C764        C913   1.478       .  S
C764        O765   1.264       .  A
C769        C770   1.409       .  A
C769        C774   1.393       .  A
C769        H776   1.083       .  S
C770        C771   1.414       .  A
C771        C772   1.405       .  A
C771        F778   1.357       .  S
C772        C773   1.403       .  A
C772        H777   1.083       .  S
C773        C774   1.400       .  A
C774        F775   1.358       .  S
C779        C780   1.402       .  A
C779        C784   1.401       .  A
C779        H786   1.083       .  S
C780       C1833   1.483       .  S
C780        C781   1.409   1_455  A
C781        C782   1.399   1_655  A
C781       F1916   1.358       .  S
C782        C783   1.405       .  A
C782        H787   1.083   1_455  S
C783        C784   1.415       .  A
C784        F785   1.358       .  S
F788       C1909   1.358       .  S
C789        C790   1.408       .  A
C789        C794   1.395       .  A
C789        H796   1.083       .  S
C790        C791   1.413       .  A
C791        C792   1.406       .  A
C791        F798   1.357       .  S
C792        C793   1.404       .  A
C792        H797   1.083       .  S
C793        C794   1.401       .  A
C794        F795   1.358       .  S
C799        C800   1.409       .  A
C799        C804   1.397       .  A
C799        H806   1.083       .  S
C800        C801   1.413   1_455  A
C801        C802   1.405       .  A
C801        F808   1.357       .  S
C802        C803   1.405       .  A
C802        H807   1.083       .  S
C803       C1858   1.480       .  S
C803        C804   1.404   1_655  A
C804       F1933   1.358       .  S
F805       C1932   1.358       .  S
C809        C810   1.407       .  A
C809        C814   1.395       .  A
C809        H816   1.083       .  S
C810        C811   1.412       .  A
C811        C812   1.401       .  A
C811        F818   1.357       .  S
C812        C813   1.401       .  A
C812        H817   1.083       .  S
C813        C814   1.401       .  A
C814        F815   1.358       .  S
C819        C820   1.410       .  A
C819        C824   1.400       .  A
C819        H826   1.083       .  S
C820       C1949   1.410       .  A
C821       C1948   1.410   1_455  A
C821        C822   1.392       .  A
C821        F828   1.357       .  S
C822       C1951   1.399   1_455  A
C822        H827   1.084       .  S
C823       C1950   1.399       .  A
C823        C824   1.401       .  A
C824        F825   1.357       .  S
C829        C830   1.409       .  A
C829        C834   1.394       .  A
C829        H836   1.083       .  S
C830        C831   1.413       .  A
C831        C832   1.404       .  A
C832        C833   1.402       .  A
C832        H837   1.083       .  S
C833        C834   1.401       .  A
C834        F835   1.358       .  S
C839        C840   1.408       .  A
C839        C844   1.399       .  A
C839        H846   1.083       .  S
C840        C841   1.408       .  A
C841        C842   1.393       .  A
C841        F848   1.357       .  S
C842        C843   1.406       .  A
C842        H847   1.083       .  S
C843        C844   1.409       .  A
C844        F845   1.358       .  S
C849        C850   1.398       .  A
C849        C854   1.392       .  A
C849        H856   1.084       .  S
C850        C851   1.403       .  A
C851        C852   1.400       .  A
C851        F858   1.356       .  S
C852        C853   1.407       .  A
C852        H857   1.083       .  S
C853        C854   1.409       .  A
C854        F855   1.357       .  S
C859        C860   1.403       .  A
C859        C864   1.401       .  A
C859        H866   1.083       .  S
C860        C861   1.408       .  A
C861        C862   1.394       .  A
C861        F868   1.358       .  S
C862        C863   1.405       .  A
C862        H867   1.083       .  S
C863        C864   1.414       .  A
C864        F865   1.357       .  S
C869        C870   1.410       .  A
C869        C874   1.405       .  A
C869        H876   1.083       .  S
C870        C871   1.414       .  A
C871        C872   1.393       .  A
C871        F878   1.357       .  S
C872        C873   1.397       .  A
C872        H877   1.084       .  S
C873        C874   1.404       .  A
C874        F875   1.357       .  S
C879        C880   1.404       .  A
C879        C884   1.397       .  A
C879        H886   1.083       .  S
C880        C881   1.412       .  A
C881        C882   1.400       .  A
C881        F888   1.357       .  S
C882        C883   1.403       .  A
C882        H887   1.083       .  S
C883        C884   1.407       .  A
C884        F885   1.357       .  S
C889        C890   1.400       .  A
C889        C894   1.394       .  A
C889        H896   1.084       .  S
C890        C891   1.405       .  A
C891        C892   1.400       .  A
C891        F898   1.356       .  S
C892        C893   1.407       .  A
C892       H2025   1.083       .  S
C893       C1795   1.482       .  S
C893        C894   1.409       .  A
C894        F895   1.357       .  S
H897       C2020   1.083       .  S
C899        C900   1.408       .  A
C899        C904   1.393       .  A
C899        H906   1.083       .  S
C900        C901   1.413       .  A
C901        C902   1.404       .  A
C901        F908   1.357       .  S
C902        C903   1.403       .  A
C902        H907   1.083       .  S
C903        C904   1.401       .  A
C904        F905   1.358       .  S
C909        C910   1.403       .  A
C909       C2042   1.397       .  A
C909        H916   1.083       .  S
C910        C911   1.405       .  A
C911        C912   1.396       .  A
C911        F918   1.358       .  S
C912       C2041   1.405       .  A
C912        H917   1.083       .  S
C913       C2040   1.405   1_455  A
C913        C914   1.410       .  A
C914       C2037   1.397       .  A
C914        F915   1.358       .  S
C919        C920   1.407       .  A
C919        C924   1.401       .  A
C919        H926   1.083       .  S
C920        C921   1.410       .  A
C921        C922   1.393       .  A
C921        F928   1.358       .  S
C922        C923   1.399       .  A
C922        H927   1.084       .  S
C923        C924   1.404       .  A
C924        F925   1.356       .  S
C929        C930   1.403       .  A
C929        C934   1.405       .  A
C929        H936   1.083       .  S
C930       C1800   1.486   1_455  S
C930        C931   1.402       .  A
C931        C932   1.393       .  A
C931        F938   1.358       .  S
C932        C933   1.408       .  A
C932        H937   1.083       .  S
C933        C934   1.414       .  A
C934        F935   1.357       .  S
C939        C940   1.408       .  A
C939        C944   1.398       .  A
C939        H946   1.083       .  S
C940        C941   1.410       .  A
C941        C942   1.399       .  A
C941        F948   1.357       .  S
C942        C943   1.406       .  A
C942        H947   1.083       .  S
C943        C944   1.409       .  A
C944        F945   1.358       .  S
C949        C950   1.408       .  A
C949        C954   1.404       .  A
C949        H956   1.083       .  S
C950        C951   1.410       .  A
C951        C952   1.394       .  A
C951        F958   1.357       .  S
C952        C953   1.400       .  A
C952        H957   1.084       .  S
C953       C1801   1.486   1_455  S
C953        C954   1.405       .  A
C954        F955   1.356       .  S
C959        C964   1.406       .  A
C959        H966   1.083       .  S
C960        C961   1.398       .  A
C961        C962   1.389       .  A
C961        F968   1.358       .  S
C962        C963   1.408       .  A
C962        H967   1.083       .  S
C964        F965   1.357       .  S
C969        C970   1.408       .  A
C969        C974   1.401       .  A
C969        H976   1.083       .  S
C970        C971   1.405       .  A
C971        C972   1.401       .  A
C971        F978   1.357       .  S
C972        C973   1.411       .  A
C972        H977   1.083       .  S
C973        C974   1.409       .  A
C974        F975   1.358       .  S
C979        C980   1.405       .  A
C979        C984   1.395       .  A
C979        H986   1.083       .  S
C980        C981   1.408       .  A
C981        C982   1.395       .  A
C981        F988   1.357       .  S
C982        C983   1.403       .  A
C982        H987   1.084       .  S
C983        C984   1.406       .  A
C984        F985   1.358       .  S
C989        C990   1.404       .  A
C989        C994   1.395       .  A
C989        H996   1.083       .  S
C990        C991   1.412       .  A
C991        C992   1.399       .  A
C991        F998   1.357       .  S
C992        C993   1.404       .  A
C992        H997   1.083       .  S
C993        C994   1.412       .  A
C994        F995   1.358       .  S
C999       C1000   1.404       .  A
C999       C1004   1.402       .  A
C1000      C1001   1.410       .  A
C1001      C1002   1.398       .  A
C1001      F1008   1.357       .  S
C1002      C1003   1.404       .  A
C1002      H1007   1.083       .  S
C1003      C1004   1.414       .  A
C1004      F1005   1.358       .  S
C1009      C1010   1.410       .  A
C1009      C1014   1.405       .  A
C1009      H1016   1.083       .  S
C1010      C1011   1.413       .  A
C1011      C1012   1.395       .  A
C1011      F1018   1.358       .  S
C1012      C1013   1.399       .  A
C1012      H1017   1.084       .  S
C1013      C1014   1.404       .  A
C1014      F1015   1.357       .  S
C1019      C1020   1.408       .  A
C1019      C1024   1.394       .  A
C1019      H1026   1.083       .  S
C1020      C1021   1.411       .  A
C1021      C1022   1.401       .  A
C1021      F1028   1.357       .  S
C1022      C1023   1.404       .  A
C1022      H1027   1.083       .  S
C1023      C1024   1.405       .  A
C1024      F1025   1.358       .  S
C1029      C1030   1.409   1_455  A
C1029      C1034   1.393       .  A
C1029      H1036   1.083       .  S
C1030      C1721   1.491       .  S
C1030      C1031   1.413   1_655  A
C1031      C1032   1.406       .  A
C1031      F1038   1.357   1_455  S
C1032      C1033   1.403       .  A
C1032      H1037   1.083       .  S
C1033      C1034   1.399       .  A
C1034      F1035   1.358       .  S
C1039      C1040   1.403       .  A
C1039      C1044   1.401       .  A
C1039      H1046   1.083       .  S
C1040      C1041   1.407       .  A
C1041      C1042   1.396       .  A
C1041      F1048   1.358       .  S
C1042      C1043   1.405       .  A
C1042      H1047   1.083       .  S
C1043      C1044   1.413       .  A
C1044      F1045   1.358       .  S
C1049      C1050   1.409       .  A
C1049      C1054   1.394       .  A
C1049      H1056   1.083       .  S
C1050      C1051   1.412       .  A
C1051      C1052   1.403       .  A
C1051      F1058   1.356       .  S
C1052      C1053   1.401       .  A
C1052      H1057   1.083       .  S
C1053      C1054   1.402       .  A
C1054      F1055   1.358       .  S
C1059      C1060   1.407       .  A
C1059      C1064   1.395       .  A
C1059      H1066   1.083       .  S
C1060      C1061   1.408       .  A
C1061      C1062   1.392       .  A
C1061      F1068   1.358       .  S
C1062      C1063   1.405       .  A
C1063      C1064   1.408       .  A
C1064      F1065   1.358       .  S
C1069      C2198   1.408   1_455  A
C1069      C1074   1.393       .  A
C1069      H2204   1.083       .  S
C1070      C2197   1.408       .  A
C1070      C2199   1.414       .  A
C1071      C2198   1.414   1_455  A
C1071      C1072   1.403       .  A
C1071      F2206   1.357   1_455  S
C1072      C1073   1.401       .  A
C1072      H1077   1.083       .  S
C1073      C1074   1.399       .  A
C1074      F1075   1.358       .  S
H1076      C2197   1.083       .  S
F1078      C2199   1.357       .  S
C1079      C1080   1.410       .  A
C1079      C1084   1.401       .  A
C1079      H1086   1.083       .  S
C1080      C1081   1.410       .  A
C1081      C1082   1.393       .  A
C1081      F1088   1.358       .  S
C1082      C1083   1.401       .  A
C1082      H1087   1.084       .  S
C1083      C1084   1.401       .  A
C1084      F2213   1.357       .  S
F1085      C2212   1.357       .  S
C1089      C1090   1.403       .  A
C1089      C1094   1.404       .  A
C1089      H1096   1.083       .  S
C1090      C1091   1.399       .  A
C1091      C1092   1.391       .  A
C1091      F1098   1.358       .  S
C1092      C1093   1.407       .  A
C1092      H1097   1.083       .  S
C1093      C1094   1.412       .  A
C1094      F1095   1.357       .  S
C1099      C1100   1.408       .  A
C1099      C1104   1.399       .  A
C1099      H1106   1.083       .  S
C1100      C1101   1.407       .  A
C1101      C1102   1.397       .  A
C1101      F1108   1.358       .  S
C1102      C1103   1.406       .  A
C1102      H1107   1.083       .  S
C1103      C1104   1.406       .  A
C1104      F1105   1.357       .  S
C1109      C1110   1.407       .  A
C1109      C1114   1.392       .  A
C1109      H1116   1.083       .  S
C1110      C1111   1.412       .  A
C1111      C1112   1.401       .  A
C1111      F1118   1.357       .  S
C1112      C1113   1.400       .  A
C1112      H1117   1.083       .  S
C1113      C1114   1.400       .  A
C1114      F1115   1.358       .  S
C1119      C1120   1.409       .  A
C1119      C1124   1.402       .  A
C1119      H2254   1.083       .  S
C1121      C1122   1.394       .  A
C1121      F1128   1.358       .  S
C1122      H1127   1.083       .  S
C1123      C1124   1.408       .  A
C1124      F1125   1.357       .  S
H1126      C2247   1.083       .  S
C1129      N1694   1.360       .  A
C1129      N1134   1.355       .  A
C1129      C1687   1.483       .  S
N1130      C1693   1.360       .  A
N1130      C1131   1.362       .  A
C1131      N1696   1.361       .  A
C1131      C1139   1.470       .  S
N1132      C1695   1.361       .  A
N1132      C1133   1.358       .  A
C1133      N1134   1.355       .  A
C1133      C1674   1.484       .  S
C1135      N1136   1.354       .  A
C1135      N1140   1.358       .  A
C1135      C1667   1.480       .  S
N1136      C1137   1.356       .  A
C1137      N1138   1.360       .  A
C1137      C1657   1.485       .  S
N1138      C1139   1.362       .  A
C1139      N1140   1.362       .  A
C1141      N1142   1.356       .  A
C1141      N1146   1.358       .  A
C1141      C1644   1.483       .  S
N1142      C1143   1.355       .  A
C1143      N1144   1.361       .  A
C1143      C1151   1.468       .  S
N1144      C1145   1.361       .  A
C1145      N1146   1.360       .  A
C1145      C1634   1.490       .  S
C1147      N1712   1.355       .  A
C1147      N1152   1.356       .  A
C1147      C1627   1.477       .  S
N1148      C1711   1.356       .  A
N1148      C1149   1.356       .  A
C1149      N1150   1.361       .  A
C1149      C1614   1.489       .  S
N1150      C1715   1.363       .  A
C1151      N1714   1.363       .  A
C1151      N1152   1.356       .  A
C1153      N1154   1.359       .  A
C1153      N1158   1.354       .  A
C1153      C1604   1.480       .  S
N1154      C1155   1.362       .  A
C1155      N1156   1.365       .  A
C1155      C1163   1.475       .  S
N1156      C1157   1.362       .  A
C1157      N1158   1.356       .  A
C1159      N1160   1.357       .  A
C1159      N1164   1.362       .  A
C1159      C1574   1.492       .  S
N1160      C1161   1.357       .  A
C1161      N1162   1.359       .  A
C1161      C1584   1.488       .  S
N1162      C1163   1.361       .  A
C1163      N1164   1.364       .  A
C1165      C1577   1.485       .  S
C1165      C1166   1.412       .  A
C1165      C1170   1.415       .  A
C1166      C1617   1.483       .  S
C1166      C1167   1.411       .  A
C1167      C1677   1.478       .  S
C1167      C1168   1.410       .  A
C1168      C1597   1.485       .  S
C1168      C1169   1.408       .  A
C1169      C1637   1.483       .  S
C1169      C1170   1.413       .  A
C1170      C1654   1.481       .  S
O1171     Ni1177   1.937       .  S
O1171      C1192   1.274       .  A
O1172     Ni1195   1.886       .  S
O1172      C1181   1.266       .  A
O1173     Ni1177   1.919       .  S
O1173     Ni1195   1.897       .  S
O1173     Ni1189   1.914       .  S
O1173      H1196   0.969       .  S
C1174      C1624   1.477       .  S
C1174      O1191   1.265       .  A
C1174      O1183   1.273       .  A
O1175     Ni1194   1.928       .  S
O1175      C1181   1.272       .  A
O1176     Ni1194   1.911       .  S
O1176      C1178   1.274       .  A
Ni1177     O1180   1.937       .  S
Ni1177     O1182   1.917       .  S
C1178      C1607   1.486       .  S
C1178      O1188   1.276       .  A
O1179     Ni1195   1.902       .  S
O1179      C1185   1.268       .  A
O1180      C1185   1.272       .  A
C1181      C1547   1.470       .  S
O1182      C1184   1.277       .  A
O1183     Ni1194   1.934       .  S
C1184      C1567   1.489       .  S
C1184      O1190   1.278       .  A
C1185      C1554   1.484       .  S
H1186      O1187   0.966       .  S
O1187     Ni1195   1.908       .  S
O1187     Ni1189   1.894       .  S
O1187     Ni1194   1.920       .  S
O1188     Ni1189   1.940       .  S
Ni1189     O1193   1.887       .  S
Ni1189     O1191   1.892       .  S
O1190     Ni1195   1.943       .  S
C1192      C1664   1.481       .  S
C1192      O1193   1.264       .  A
C1197      N1198   1.356       .  A
C1197      N1766   1.361       .  A
C1197      C1527   1.490       .  S
N1198      C1199   1.353       .  A
C1199      N1200   1.362       .  A
C1199      C1534   1.487       .  S
N1200      C1201   1.366       .  A
C1201      N1766   1.364       .  A
C1201      C1207   1.480       .  S
N1202      C1761   1.361       .  A
N1202      C1765   1.364       .  A
C1203      N1204   1.355       .  A
C1203      N1208   1.362       .  A
C1203      C1514   1.484       .  S
N1204      C1205   1.355       .  A
C1205      N1206   1.362       .  A
C1205      C2128   1.486       .  S
N1206      C1207   1.365       .  A
C1207      N1208   1.364       .  A
C1209      N1210   1.357       .  A
C1209      N1214   1.358       .  A
C1209      C1504   1.489       .  S
N1210      C1211   1.359       .  A
C1211      N1212   1.361       .  A
C1211      C1497   1.492       .  S
N1212      C1213   1.362       .  A
C1213      N1214   1.359       .  A
C1213      C1219   1.472       .  S
C1215      N1216   1.354       .  A
C1215      N1220   1.360       .  A
C1215      C1557   1.483       .  S
N1216      C1217   1.354       .  A
C1217      N1218   1.360       .  A
C1217      C1484   1.481       .  S
N1218      C1219   1.362       .  A
C1219      N1220   1.361       .  A
C1221      N1222   1.355       .  A
C1221      N1226   1.355       .  A
C1221      C1474   1.473       .  S
N1222      C1223   1.357       .  A
C1223      N1224   1.362       .  A
N1224      C1225   1.360       .  A
C1225      N1226   1.358       .  A
C1225      C1464   1.490       .  S
C1227      N1228   1.356       .  A
C1227      N1232   1.356       .  A
C1227      C1544   1.475       .  S
C1229      N1230   1.361       .  A
N1230      C1231   1.359       .  A
C1233      C1487   1.482       .  S
C1233      C1234   1.410       .  A
C1233      C1238   1.411       .  A
C1234      C1524   1.483       .  S
C1234      C1799   1.411       .  A
C1235      C1454   1.484       .  S
C1235      C1798   1.411   1_545  A
C1235      C1236   1.415       .  A
C1236      C1801   1.415   1_545  A
C1237      C1800   1.415       .  A
C1237      C1238   1.414       .  A
C1238      C1467   1.486       .  S
C1239      N1240   1.353       .  A
C1239      N1244   1.357       .  A
C1239      C1447   1.478       .  S
N1240      C1241   1.356       .  A
C1241      N1242   1.363       .  A
C1241      C1434   1.491       .  S
N1242      C1243   1.364       .  A
C1243      N1244   1.362       .  A
C1243      C1249   1.473       .  S
C1245      N1246   1.354       .  A
C1245      N1250   1.362       .  A
C1245      C1424   1.479       .  S
N1246      C1247   1.353       .  A
C1247      N1248   1.357       .  A
C1247      C1981   1.479       .  S
N1248      C1249   1.361       .  A
C1249      N1250   1.363       .  A
C1251      N1252   1.357       .  A
C1251      N1256   1.358       .  A
C1251      C1407   1.484       .  S
N1252      C1253   1.357       .  A
C1253      N1254   1.360       .  A
C1253      C1958   1.491       .  S
N1254      C1255   1.363       .  A
C1255      N1256   1.358       .  A
C1255      C1261   1.469       .  S
C1257      N1258   1.358       .  A
C1257      C1384   1.483       .  S
N1258      C1259   1.360       .  A
C1259      N1260   1.361       .  A
C1259      C1374   1.486       .  S
C1261      N1262   1.355       .  A
C1263      N1264   1.362       .  A
C1263      N1268   1.359       .  A
C1263      C1354   1.492       .  S
N1264      C1265   1.363       .  A
C1265      N1266   1.363       .  A
N1266      C1267   1.360       .  A
C1267      N1268   1.358       .  A
C1267      C1364   1.495       .  S
C1269      N1274   1.355   1_455  A
C1271      N1272   1.363   1_455  A
N1272      C1273   1.360       .  A
C1273      N1274   1.356       .  A
C1273      C1334   1.491       .  S
C1275      C1357   1.486       .  S
C1275      C1276   1.416       .  A
C1275      C1280   1.412       .  A
C1276      C1437   1.483       .  S
C1276      C1277   1.413       .  A
C1277      C1377   1.482       .  S
C1277      C1278   1.410       .  A
C1278      C1337   1.484       .  S
C1278      C1279   1.408       .  A
C1279      C1414   1.479       .  S
C1279      C1280   1.411       .  A
C1280      C1397   1.484       .  S
O1281     Ni1287   1.951       .  S
O1281      C1302   1.276   1_556  A
O1282     Ni1305   1.883       .  S
O1282      C1291   1.261       .  A
O1283     Ni1851   1.919       .  S
O1283     Ni1305   1.893       .  S
O1283     Ni1299   1.904       .  S
O1283      H1306   0.966       .  S
C1284      C1684   1.488       .  S
C1284      O1301   1.275       .  A
C1284      O1293   1.277       .  A
O1285     Ni1304   1.944   1_655  S
O1285      C1291   1.273       .  A
O1286     Ni1304   1.916   1_654  S
O1286      C1288   1.270       .  A
Ni1287     O1854   1.930   1_545  S
Ni1287     O1292   1.923       .  S
Ni1287     O1847   1.919   1_545  S
C1288      C1587   1.475       .  S
C1288      O1298   1.268       .  A
O1289     Ni1305   1.908       .  S
O1289      C1295   1.273       .  A
O1290     Ni1851   1.931       .  S
O1290      C1295   1.279       .  A
C1291      C1387   1.463       .  S
O1292      C1294   1.272       .  A
C1294      O1300   1.270       .  A
C1295      C1427   1.486       .  S
O1297     Ni1305   1.902       .  S
O1297     Ni1299   1.896       .  S
O1297     Ni1304   1.922   1_655  S
O1298     Ni1299   1.911   1_554  S
Ni1299     O1867   1.882   1_556  S
O1300     Ni1869   1.914   1_545  S
C1302      C1647   1.467       .  S
C1302      O1303   1.262       .  A
O1303     Ni1863   1.883   1_544  S
Ni1305     O1864   1.914       .  S
O1307     Ni1313   1.937       .  S
O1307      C1328   1.275       .  A
O1308     Ni1331   1.887       .  S
O1308      C1317   1.264       .  A
O1309     Ni1313   1.924       .  S
O1309     Ni1331   1.894       .  S
O1309     Ni1325   1.911       .  S
O1309      H1332   0.966       .  S
C1310      C1507   1.486       .  S
C1310      O1327   1.266       .  A
C1310      O1319   1.275       .  A
O1311     Ni1330   1.942       .  S
O1311      C1317   1.276       .  A
O1312     Ni1330   1.918       .  S
O1312      C1314   1.276       .  A
Ni1313     O1316   1.943       .  S
Ni1313     O1318   1.917       .  S
C1314      C1537   1.493       .  S
C1314      O1324   1.278       .  A
O1315     Ni1331   1.896       .  S
O1315      C1321   1.266       .  A
O1316      C1321   1.274       .  A
C1317      C1444   1.483       .  S
O1318      C1320   1.275       .  A
O1319     Ni1330   1.945       .  S
C1320      C1347   1.490       .  S
C1320      O1326   1.276       .  A
C1321      C1404   1.483       .  S
H1322      O1323   0.970       .  S
O1323     Ni1331   1.914       .  S
O1323     Ni1325   1.896       .  S
O1323     Ni1330   1.922       .  S
O1324     Ni1325   1.944       .  S
Ni1325     O1329   1.886       .  S
Ni1325     O1327   1.900       .  S
O1326     Ni1331   1.938       .  S
C1328      C1477   1.479       .  S
C1328      O1329   1.264       .  A
C1333      C1334   1.409       .  A
C1333      C1338   1.393       .  A
C1333      H1340   1.083       .  S
C1334      C1335   1.413       .  A
C1335      C1336   1.405       .  A
C1335      F1342   1.357       .  S
C1336      C1337   1.403       .  A
C1336      H1341   1.083       .  S
C1337      C1338   1.400       .  A
C1338      F1339   1.358       .  S
C1343      C1344   1.402       .  A
C1343      C1348   1.401       .  A
C1343      H1350   1.083       .  S
C1344      C1345   1.409       .  A
C1345      C1346   1.399       .  A
C1346      C1347   1.405       .  A
C1346      H1351   1.083       .  S
C1347      C1348   1.415       .  A
C1348      F1349   1.358       .  S
C1353      C1354   1.408       .  A
C1353      C1358   1.395       .  A
C1353      H1360   1.083       .  S
C1354      C1355   1.413       .  A
C1355      C1356   1.406       .  A
C1355      F1362   1.357       .  S
C1356      C1357   1.403       .  A
C1356      H1361   1.083       .  S
C1357      C1358   1.400       .  A
C1358      F1359   1.358       .  S
C1363      C1364   1.409       .  A
C1363      C1368   1.397       .  A
C1363      H1370   1.083       .  S
C1364      C1365   1.413       .  A
C1365      C1366   1.405       .  A
C1365      F1372   1.357       .  S
C1366      C1367   1.405       .  A
C1366      H1371   1.083       .  S
C1367      C1368   1.404       .  A
C1373      C1374   1.407       .  A
C1373      C1378   1.395       .  A
C1373      H1380   1.083       .  S
C1374      C1375   1.412       .  A
C1375      C1376   1.402       .  A
C1375      F1382   1.357       .  S
C1376      C1377   1.401       .  A
C1376      H1381   1.083       .  S
C1377      C1378   1.401       .  A
C1378      F1379   1.358       .  S
C1383      C1384   1.410       .  A
C1383      C1388   1.400       .  A
C1383      H1390   1.083       .  S
C1385      C1386   1.392       .  A
C1385      F1392   1.357       .  S
C1386      H1391   1.084       .  S
C1387      C1388   1.401       .  A
C1388      F1389   1.357       .  S
C1393      C1394   1.409   1_545  A
C1393      C1398   1.393       .  A
C1393      H1400   1.083       .  S
C1394      C1817   1.490       .  S
C1394      C1395   1.413   1_565  A
C1395      C1396   1.403       .  A
C1395      F1966   1.356   1_545  S
C1396      C1397   1.402       .  A
C1396      H1401   1.083       .  S
C1397      C1398   1.401       .  A
C1398      F1399   1.358       .  S
F1402      C1959   1.356       .  S
C1403      C1404   1.408       .  A
C1403      C1408   1.400       .  A
C1403      H1410   1.083       .  S
C1404      C1405   1.408       .  A
C1405      C1406   1.393       .  A
C1405      F1412   1.357       .  S
C1406      C1407   1.406       .  A
C1406      H1411   1.083       .  S
C1407      C1408   1.409       .  A
C1408      F1409   1.358       .  S
C1413      C1414   1.398       .  A
C1413      C1418   1.392       .  A
C1413      H1420   1.084       .  S
C1414      C1415   1.403       .  A
C1415      C1416   1.401       .  A
C1415      F1422   1.356       .  S
C1416      C1417   1.407   1_545  A
C1416      H1421   1.083       .  S
C1417      C1811   1.480       .  S
C1417      C1418   1.409   1_565  A
C1418      F1419   1.357       .  S
C1423      C1424   1.403       .  A
C1423      C1428   1.401       .  A
C1423      H1430   1.083       .  S
C1424      C1425   1.408       .  A
C1425      C1426   1.394       .  A
C1425      F1432   1.358       .  S
C1426      C1427   1.405       .  A
C1426      H1431   1.083       .  S
C1427      C1428   1.414       .  A
C1428      F1429   1.358       .  S
C1433      C1434   1.410       .  A
C1433      C1438   1.405       .  A
C1433      H1440   1.083       .  S
C1434      C1435   1.414       .  A
C1435      C1436   1.392       .  A
C1435      F1442   1.357       .  S
C1436      C1437   1.397       .  A
C1436      H1441   1.084       .  S
C1437      C1438   1.404       .  A
C1438      F1439   1.357       .  S
C1443      C1444   1.404       .  A
C1443      C1448   1.397       .  A
C1443      H1450   1.083       .  S
C1444      C1445   1.412       .  A
C1445      C1446   1.400       .  A
C1445      F1452   1.357       .  S
C1446      C1447   1.403       .  A
C1446      H1451   1.083       .  S
C1447      C1448   1.407       .  A
C1448      F1449   1.357       .  S
C1453      C1454   1.400       .  A
C1453      C1458   1.394       .  A
C1453      H1460   1.084       .  S
C1454      C1455   1.405       .  A
C1455      C1456   1.400       .  A
C1455      F1462   1.356       .  S
C1456      C1457   1.407       .  A
C1457      C1458   1.410       .  A
C1458      F1459   1.357       .  S
C1463      C1464   1.408       .  A
C1463      C1468   1.393       .  A
C1463      H1470   1.083       .  S
C1464      C1465   1.413       .  A
C1465      C1466   1.404       .  A
C1465      F1472   1.357       .  S
C1466      C1467   1.403       .  A
C1466      H1471   1.083       .  S
C1467      C1468   1.401       .  A
C1468      F1469   1.358       .  S
C1473      C1474   1.403   1_455  A
C1473      H1480   1.083       .  S
C1474      C1475   1.405       .  A
C1475      C1476   1.397       .  A
C1475      F1482   1.358       .  S
C1476      H1481   1.083       .  S
C1477      C1478   1.410       .  A
C1478      F1479   1.358       .  S
C1483      C1484   1.407       .  A
C1483      C1488   1.401       .  A
C1483      H1490   1.083       .  S
C1484      C1485   1.411       .  A
C1485      C1486   1.393       .  A
C1485      F1492   1.358       .  S
C1486      C1487   1.398       .  A
C1486      H1491   1.084       .  S
C1487      C1488   1.404       .  A
C1488      F1489   1.356       .  S
C1493      C1494   1.403       .  A
C1493      C1498   1.405       .  A
C1493      H1500   1.083       .  S
C1494      C1495   1.402       .  A
C1495      C1496   1.393       .  A
C1495      F1502   1.358       .  S
C1496      C1497   1.408       .  A
C1496      H1501   1.083       .  S
C1497      C1498   1.414       .  A
C1498      F1499   1.357       .  S
C1503      C1504   1.408       .  A
C1503      C1508   1.397       .  A
C1503      H1510   1.083       .  S
C1504      C1505   1.410       .  A
C1505      C1506   1.400       .  A
C1505      F1512   1.357       .  S
C1506      C1507   1.406       .  A
C1506      H1511   1.083       .  S
C1507      C1508   1.409       .  A
C1508      F1509   1.358       .  S
C1513      C1514   1.407       .  A
C1513      C1518   1.404       .  A
C1513      H1520   1.083       .  S
C1514      C1515   1.410       .  A
C1515      C1516   1.394       .  A
C1515      F1522   1.357       .  S
C1516      C1517   1.400       .  A
C1516      H1521   1.084       .  S
C1517      C1518   1.405       .  A
C1518      F1519   1.356       .  S
C1523      C2088   1.404       .  A
C1523      C1528   1.406       .  A
C1523      H1530   1.083       .  S
C1524      C2087   1.404       .  A
C1524      C1525   1.398       .  A
C1525      C1526   1.389       .  A
C1525      F1532   1.358       .  S
C1526      C1527   1.409       .  A
C1526      H1531   1.083       .  S
C1527      C2092   1.414       .  A
C1528      C2091   1.414       .  A
C1528      F1529   1.357       .  S
C1533      C1534   1.409       .  A
C1533      C1538   1.401       .  A
C1533      H1540   1.083       .  S
C1534      C1535   1.405       .  A
C1535      C1536   1.402       .  A
C1535      F1542   1.357       .  S
C1536      C1537   1.411       .  A
C1536      H1541   1.083       .  S
C1537      C1538   1.409       .  A
C1538      F1539   1.358       .  S
C1543      C1544   1.405       .  A
C1543      C1548   1.395       .  A
C1543      H1550   1.083       .  S
C1544      C1545   1.408       .  A
C1545      C1546   1.394       .  A
C1545      F1552   1.357       .  S
C1546      C1547   1.403       .  A
C1546      H1551   1.084       .  S
C1547      C1548   1.406       .  A
C1548      F1549   1.358       .  S
C1553      C1554   1.404       .  A
C1553      C1558   1.395       .  A
C1553      H1560   1.083       .  S
C1554      C1555   1.412       .  A
C1555      C1556   1.398       .  A
C1555      F1562   1.357       .  S
C1556      C1557   1.404       .  A
C1556      H1561   1.083       .  S
C1557      C1558   1.411       .  A
C1558      F1559   1.358       .  S
C1563      C1564   1.404       .  A
C1563      C1568   1.402       .  A
C1563      H2134   1.083       .  S
C1564      C1769   1.486   1_545  S
C1564      C1565   1.410       .  A
C1565      C1566   1.398       .  A
C1565      F1572   1.357   1_545  S
C1566      C1567   1.404       .  A
C1566      H1571   1.083       .  S
C1567      C1568   1.414       .  A
C1568      F1569   1.358       .  S
H1570      C2127   1.083       .  S
C1573      C1574   1.410       .  A
C1573      C1578   1.405       .  A
C1573      H1580   1.083       .  S
C1574      C1575   1.413       .  A
C1575      C1576   1.395       .  A
C1575      F1582   1.357       .  S
C1576      C1577   1.399       .  A
C1576      H1581   1.084       .  S
C1577      C1578   1.404       .  A
C1578      F1579   1.357       .  S
C1583      C1584   1.408       .  A
C1583      C1588   1.394       .  A
C1583      H1590   1.083       .  S
C1584      C1585   1.411       .  A
C1585      C1586   1.402       .  A
C1585      F1592   1.357       .  S
C1586      C1587   1.404       .  A
C1586      H1591   1.083       .  S
C1587      C1588   1.404       .  A
C1588      F1589   1.358       .  S
C1593      C1594   1.409       .  A
C1593      C1598   1.393       .  A
C1593      H1600   1.083       .  S
C1594      C1595   1.412       .  A
C1595      C1596   1.406       .  A
C1595      F1602   1.357       .  S
C1596      C1597   1.404       .  A
C1596      H1601   1.083       .  S
C1597      C1598   1.400       .  A
C1598      F1599   1.358       .  S
C1603      C1604   1.403       .  A
C1603      C1608   1.401       .  A
C1603      H1610   1.083       .  S
C1604      C1605   1.408       .  A
C1605      C1606   1.396       .  A
C1605      F1612   1.358       .  S
C1606      C1607   1.404       .  A
C1606      H1611   1.083       .  S
C1607      C1608   1.413       .  A
C1608      F1609   1.358       .  S
C1613      C1614   1.409       .  A
C1613      C1618   1.395       .  A
C1613      H1620   1.083       .  S
C1614      C1615   1.412       .  A
C1615      C1616   1.403       .  A
C1615      F1622   1.356       .  S
C1616      C1617   1.401       .  A
C1616      H1621   1.083       .  S
C1617      C1618   1.402       .  A
C1618      F1619   1.358       .  S
C1623      C1624   1.407       .  A
C1623      C1628   1.395       .  A
C1623      H1630   1.083       .  S
C1624      C1625   1.408       .  A
C1625      C1626   1.391       .  A
C1625      F1632   1.358       .  S
C1626      C1627   1.405       .  A
C1626      H2195   1.083       .  S
C1627      C1628   1.408       .  A
C1628      F1629   1.357       .  S
H1631      C2190   1.083       .  S
C1633      C1638   1.394       .  A
C1635      C1636   1.403       .  A
C1636      C1637   1.401       .  A
C1636      H1641   1.083       .  S
C1637      C1638   1.399       .  A
C1638      F1639   1.358       .  S
C1643      C1644   1.410       .  A
C1643      C1648   1.401       .  A
C1643      H1650   1.083       .  S
C1644      C1645   1.410       .  A
C1645      C1646   1.393       .  A
C1645      F1652   1.358       .  S
C1646      C1647   1.401       .  A
C1646      H1651   1.084   1_545  S
C1647      C1648   1.401       .  A
C1653      C1654   1.403       .  A
C1653      C1658   1.404       .  A
C1653      H1660   1.083       .  S
C1654      C1655   1.400       .  A
C1655      C1656   1.391       .  A
C1655      F1662   1.358       .  S
C1656      C1657   1.407       .  A
C1656      H1661   1.083       .  S
C1657      C1658   1.412       .  A
C1658      F1659   1.357       .  S
C1663      C1664   1.408       .  A
C1663      C1668   1.399       .  A
C1663      H1670   1.083       .  S
C1664      C1665   1.407       .  A
C1665      C1666   1.397       .  A
C1665      F1672   1.358       .  S
C1666      C1667   1.406       .  A
C1666      H1671   1.083       .  S
C1667      C1668   1.406       .  A
C1668      F1669   1.357       .  S
C1673      C1674   1.407       .  A
C1673      C1678   1.392       .  A
C1673      H1680   1.083       .  S
C1674      C1675   1.412       .  A
C1675      C1676   1.401       .  A
C1675      F1682   1.357       .  S
C1676      C1677   1.401       .  A
C1676      H1681   1.083       .  S
C1677      C1678   1.400       .  A
C1678      F1679   1.358       .  S
C1683      C1684   1.409       .  A
C1683      C1688   1.402       .  A
C1684      C2249   1.410       .  A
C1685      C2248   1.410   1_565  A
C1685      C1686   1.394   1_565  A
C1685      F1692   1.358       .  S
C1686      C2251   1.405       .  A
C1686      H1691   1.083   1_545  S
C1687      C2250   1.405       .  A
C1687      C1688   1.408       .  A
C1688      F1689   1.357       .  S
C1693      N1698   1.355   1_545  A
C1693      C2251   1.483       .  S
N1694      C1695   1.362       .  A
C1695      C1703   1.470       .  S
N1696      C1697   1.358   1_545  A
C1697      N1698   1.355       .  A
C1697      C2238   1.483       .  S
C1699      N1700   1.354       .  A
C1699      N1704   1.358       .  A
C1699      C2231   1.480       .  S
N1700      C1701   1.356       .  A
C1701      N1702   1.360       .  A
C1701      C2221   1.485       .  S
N1702      C1703   1.362       .  A
C1703      N1704   1.361       .  A
C1705      N1706   1.356       .  A
C1705      N1710   1.357       .  A
C1705      C2208   1.483       .  S
N1706      C1707   1.355       .  A
C1707      N1708   1.361       .  A
C1707      C1715   1.468       .  S
N1708      C1709   1.361       .  A
C1709      N1710   1.360       .  A
C1709      C2198   1.490       .  S
C1711      N1716   1.356       .  A
C1711      C2191   1.477       .  S
N1712      C1713   1.355   1_545  A
C1713      N1714   1.361   1_565  A
C1713      C2178   1.489       .  S
C1715      N1716   1.356       .  A
C1717      N1718   1.359       .  A
C1717      N1722   1.355       .  A
C1717      C2168   1.480       .  S
N1718      C1719   1.362       .  A
C1719      N1720   1.365       .  A
C1719      C1727   1.475       .  S
N1720      C1721   1.362       .  A
C1721      N1722   1.356       .  A
C1723      N1724   1.357       .  A
C1723      N1728   1.362       .  A
C1723      C2138   1.491       .  S
N1724      C1725   1.357       .  A
C1725      N1726   1.359       .  A
C1725      C2148   1.487       .  S
N1726      C1727   1.360       .  A
C1727      N1728   1.364       .  A
C1729      C2141   1.486       .  S
C1729      C1730   1.413       .  A
C1729      C1734   1.415       .  A
C1730      C2181   1.484       .  S
C1730      C1731   1.411       .  A
C1731      C2241   1.478       .  S
C1731      C1732   1.409       .  A
C1732      C2161   1.485       .  S
C1732      C1733   1.408       .  A
C1733      C2201   1.482       .  S
C1733      C1734   1.413       .  A
C1734      C2218   1.481       .  S
O1735     Ni1741   1.937       .  S
O1735      C1756   1.274       .  A
O1736     Ni1759   1.886       .  S
O1736      C1745   1.265       .  A
O1737     Ni1741   1.919       .  S
O1737     Ni1759   1.897       .  S
O1737     Ni1753   1.915       .  S
O1737      H1760   0.969       .  S
C1738      C2188   1.477       .  S
C1738      O1755   1.265       .  A
C1738      O1747   1.273       .  A
O1739     Ni1758   1.929       .  S
O1739      C1745   1.272       .  A
O1740     Ni1758   1.911       .  S
O1740      C1742   1.274       .  A
Ni1741     O1744   1.938       .  S
Ni1741     O1746   1.917       .  S
C1742      C2171   1.486       .  S
C1742      O1752   1.276       .  A
O1743     Ni1759   1.902       .  S
O1743      C1749   1.268       .  A
O1744      C1749   1.272       .  A
C1745      C2111   1.470       .  S
O1746      C1748   1.277       .  A
O1747     Ni1758   1.935       .  S
C1748      C2131   1.489       .  S
C1748      O1754   1.278       .  A
C1749      C2118   1.484       .  S
H1750      O1751   0.966       .  S
O1751     Ni1759   1.908       .  S
O1751     Ni1753   1.894       .  S
O1751     Ni1758   1.920       .  S
O1752     Ni1753   1.940       .  S
Ni1753     O1757   1.887       .  S
Ni1753     O1755   1.893       .  S
O1754     Ni1759   1.942       .  S
C1756      C2228   1.481       .  S
C1756      O1757   1.264       .  A
C1761      N1762   1.356       .  A
C1761      C2091   1.490       .  S
N1762      C1763   1.353       .  A
C1763      N1764   1.362       .  A
C1763      C2098   1.487       .  S
N1764      C1765   1.365       .  A
C1765      C1771   1.479       .  S
C1767      N1768   1.355       .  A
C1767      N1772   1.362       .  A
C1767      C2078   1.485       .  S
N1768      C1769   1.355       .  A
C1769      N1770   1.362       .  A
N1770      C1771   1.365       .  A
C1771      N1772   1.364       .  A
C1773      N1774   1.357       .  A
C1773      N1778   1.358       .  A
C1773      C2068   1.489       .  S
N1774      C1775   1.359       .  A
C1775      N1776   1.361       .  A
C1775      C2061   1.492       .  S
N1776      C1777   1.362       .  A
C1777      N1778   1.359       .  A
C1777      C1783   1.473       .  S
C1779      N1780   1.354       .  A
C1779      N1784   1.360       .  A
C1779      C2121   1.484       .  S
N1780      C1781   1.354       .  A
C1781      N1782   1.360       .  A
C1781      C2048   1.481       .  S
N1782      C1783   1.362       .  A
C1783      N1784   1.361       .  A
C1785      N1786   1.355       .  A
C1785      N1790   1.355       .  A
C1785      C2038   1.472       .  S
N1786      C1787   1.357       .  A
C1787      N1788   1.362       .  A
N1788      C1789   1.360       .  A
C1789      N1790   1.358       .  A
C1789      C2028   1.489       .  S
C1791      N1792   1.357       .  A
C1791      N1796   1.356       .  A
C1791      C2108   1.475       .  S
C1793      N1794   1.361       .  A
N1794      C1795   1.359       .  A
C1797      C2051   1.482       .  S
C1797      C1798   1.410       .  A
C1797      C1802   1.411       .  A
C1798      C2088   1.483       .  S
C1799      C2018   1.484       .  S
C1799      C1800   1.415       .  A
C1801      C1802   1.415       .  A
C1802      C2031   1.486       .  S
C1803      N1804   1.354       .  A
C1803      N1808   1.357       .  A
C1803      C2011   1.478       .  S
N1804      C1805   1.356       .  A
C1805      N1806   1.363       .  A
C1805      C1998   1.492       .  S
N1806      C1807   1.364       .  A
C1807      N1808   1.362       .  A
C1807      C1813   1.473       .  S
C1809      N1810   1.354       .  A
C1809      N1814   1.362       .  A
C1809      C1988   1.480       .  S
N1810      C1811   1.353       .  A
C1811      N1812   1.357       .  A
N1812      C1813   1.361       .  A
C1813      N1814   1.363       .  A
C1815      N1816   1.356       .  A
C1815      N1820   1.358       .  A
C1815      C1971   1.483       .  S
N1816      C1817   1.356       .  A
C1817      N1818   1.360       .  A
N1818      C1819   1.363       .  A
C1819      N1820   1.358       .  A
C1819      C1825   1.468       .  S
C1821      N1822   1.358       .  A
C1821      C1948   1.483       .  S
N1822      C1823   1.360       .  A
C1823      N1824   1.361       .  A
C1823      C1938   1.486       .  S
C1825      N1826   1.355       .  A
C1827      N1828   1.362       .  A
C1827      N1832   1.359       .  A
C1827      C1918   1.492       .  S
N1828      C1829   1.363       .  A
C1829      N1830   1.363       .  A
N1830      C1831   1.360       .  A
C1831      N1832   1.358       .  A
C1831      C1928   1.495       .  S
C1833      N1838   1.355   1_455  A
C1835      N1836   1.363   1_455  A
N1836      C1837   1.360       .  A
C1837      N1838   1.356       .  A
C1837      C1898   1.491       .  S
C1839      C1921   1.486       .  S
C1839      C1840   1.416       .  A
C1839      C1844   1.413       .  A
C1840      C2001   1.483       .  S
C1840      C1841   1.414       .  A
C1841      C1941   1.482       .  S
C1841      C1842   1.410       .  A
C1842      C1901   1.485       .  S
C1842      C1843   1.408       .  A
C1843      C1978   1.479       .  S
C1843      C1844   1.411       .  A
C1844      C1961   1.485       .  S
O1845     Ni1851   1.951       .  S
O1845      C1866   1.276   1_556  A
O1846     Ni1869   1.884       .  S
O1846      C1855   1.262       .  A
O1847     Ni1869   1.894       .  S
O1847     Ni1863   1.905       .  S
O1847      H1870   0.966       .  S
C1848      C2248   1.488   1_565  S
C1848      O1865   1.276   1_565  A
C1848      O1857   1.277       .  A
O1849     Ni1868   1.943   1_655  S
O1849      C1855   1.273       .  A
O1850     Ni1868   1.916   1_654  S
O1850      C1852   1.270       .  A
Ni1851     O1856   1.923       .  S
C1852      C2151   1.475       .  S
C1852      O1862   1.268       .  A
O1853     Ni1869   1.910       .  S
O1853      C1859   1.273       .  A
O1854      C1859   1.279       .  A
C1855      C1951   1.462       .  S
O1856      C1858   1.272       .  A
C1858      O1864   1.269       .  A
C1859      C1991   1.487       .  S
O1861     Ni1869   1.902       .  S
O1861     Ni1863   1.896       .  S
O1861     Ni1868   1.921   1_655  S
O1862     Ni1863   1.910   1_554  S
C1866      C2211   1.466       .  S
C1866      O1867   1.262       .  A
O1871     Ni1877   1.936       .  S
O1871      C1892   1.275       .  A
O1872     Ni1895   1.888       .  S
O1872      C1881   1.264       .  A
O1873     Ni1877   1.924       .  S
O1873     Ni1895   1.895       .  S
O1873     Ni1889   1.911       .  S
O1873      H1896   0.966       .  S
C1874      C2071   1.486       .  S
C1874      O1891   1.266       .  A
C1874      O1883   1.275       .  A
O1875     Ni1894   1.941       .  S
O1875      C1881   1.276       .  A
O1876     Ni1894   1.917       .  S
O1876      C1878   1.276       .  A
Ni1877     O1880   1.942       .  S
Ni1877     O1882   1.917       .  S
C1878      C2101   1.492       .  S
C1878      O1888   1.278       .  A
O1879     Ni1895   1.897       .  S
O1879      C1885   1.266       .  A
O1880      C1885   1.274       .  A
C1881      C2008   1.483       .  S
O1882      C1884   1.275       .  A
O1883     Ni1894   1.945       .  S
C1884      C1911   1.490       .  S
C1884      O1890   1.276       .  A
C1885      C1968   1.483       .  S
H1886      O1887   0.970       .  S
O1887     Ni1895   1.915       .  S
O1887     Ni1889   1.896       .  S
O1887     Ni1894   1.922       .  S
O1888     Ni1889   1.944       .  S
Ni1889     O1893   1.886       .  S
Ni1889     O1891   1.901       .  S
O1890     Ni1895   1.939       .  S
C1892      C2041   1.478       .  S
C1892      O1893   1.264       .  A
C1897      C1898   1.409       .  A
C1897      C1902   1.393       .  A
C1897      H1904   1.083       .  S
C1898      C1899   1.414       .  A
C1899      C1900   1.405       .  A
C1899      F1906   1.357       .  S
C1900      C1901   1.403       .  A
C1900      H1905   1.083       .  S
C1901      C1902   1.400       .  A
C1902      F1903   1.358       .  S
C1907      C1908   1.402       .  A
C1907      C1912   1.401       .  A
C1907      H1914   1.083       .  S
C1908      C1909   1.409       .  A
C1909      C1910   1.399       .  A
C1910      C1911   1.405       .  A
C1910      H1915   1.083       .  S
C1911      C1912   1.415       .  A
C1912      F1913   1.358       .  S
C1917      C1918   1.408       .  A
C1917      C1922   1.395       .  A
C1917      H1924   1.083       .  S
C1918      C1919   1.413       .  A
C1919      C1920   1.406       .  A
C1919      F1926   1.357       .  S
C1920      C1921   1.404       .  A
C1920      H1925   1.083       .  S
C1921      C1922   1.401       .  A
C1922      F1923   1.358       .  S
C1927      C1928   1.409       .  A
C1927      C1932   1.397       .  A
C1927      H1934   1.083       .  S
C1928      C1929   1.413       .  A
C1929      C1930   1.405       .  A
C1929      F1936   1.357       .  S
C1930      C1931   1.405       .  A
C1930      H1935   1.083       .  S
C1931      C1932   1.404       .  A
C1937      C1938   1.407       .  A
C1937      C1942   1.395       .  A
C1937      H1944   1.083       .  S
C1938      C1939   1.412       .  A
C1939      C1940   1.401       .  A
C1939      F1946   1.357       .  S
C1940      C1941   1.401       .  A
C1940      H1945   1.083       .  S
C1941      C1942   1.401       .  A
C1942      F1943   1.358       .  S
C1947      C1948   1.410       .  A
C1947      C1952   1.400       .  A
C1947      H1954   1.083       .  S
C1949      C1950   1.392       .  A
C1949      F1956   1.357       .  S
C1950      H1955   1.084       .  S
C1951      C1952   1.401       .  A
C1952      F1953   1.357       .  S
C1957      C1958   1.409       .  A
C1957      C1962   1.394       .  A
C1957      H1964   1.083       .  S
C1958      C1959   1.413       .  A
C1959      C1960   1.404       .  A
C1960      C1961   1.402       .  A
C1960      H1965   1.083       .  S
C1961      C1962   1.401       .  A
C1962      F1963   1.358       .  S
C1967      C1968   1.408       .  A
C1967      C1972   1.399       .  A
C1967      H1974   1.083       .  S
C1968      C1969   1.408       .  A
C1969      C1970   1.393       .  A
C1969      F1976   1.357       .  S
C1970      C1971   1.406       .  A
C1970      H1975   1.083       .  S
C1971      C1972   1.409       .  A
C1972      F1973   1.358       .  S
C1977      C1978   1.398       .  A
C1977      C1982   1.392       .  A
C1977      H1984   1.084       .  S
C1978      C1979   1.403       .  A
C1979      C1980   1.400       .  A
C1979      F1986   1.356       .  S
C1980      C1981   1.407       .  A
C1980      H1985   1.083       .  S
C1981      C1982   1.409       .  A
C1982      F1983   1.357       .  S
C1987      C1988   1.403       .  A
C1987      C1992   1.401       .  A
C1987      H1994   1.083       .  S
C1988      C1989   1.408       .  A
C1989      C1990   1.394       .  A
C1989      F1996   1.358       .  S
C1990      C1991   1.405       .  A
C1990      H1995   1.083       .  S
C1991      C1992   1.414       .  A
C1992      F1993   1.357       .  S
C1997      C1998   1.410       .  A
C1997      C2002   1.405       .  A
C1997      H2004   1.083       .  S
C1998      C1999   1.414       .  A
C1999      C2000   1.393       .  A
C1999      F2006   1.357       .  S
C2000      C2001   1.397       .  A
C2000      H2005   1.084       .  S
C2001      C2002   1.404       .  A
C2002      F2003   1.357       .  S
C2007      C2008   1.404       .  A
C2007      C2012   1.397       .  A
C2007      H2014   1.083       .  S
C2008      C2009   1.412       .  A
C2009      C2010   1.400       .  A
C2009      F2016   1.357       .  S
C2010      C2011   1.403       .  A
C2010      H2015   1.083       .  S
C2011      C2012   1.407       .  A
C2012      F2013   1.357       .  S
C2017      C2018   1.400       .  A
C2017      C2022   1.394       .  A
C2017      H2024   1.084       .  S
C2018      C2019   1.405       .  A
C2019      C2020   1.400       .  A
C2019      F2026   1.356       .  S
C2020      C2021   1.407       .  A
C2021      C2022   1.409       .  A
C2022      F2023   1.357       .  S
C2027      C2028   1.408       .  A
C2027      C2032   1.393       .  A
C2027      H2034   1.083       .  S
C2028      C2029   1.413       .  A
C2029      C2030   1.404       .  A
C2029      F2036   1.357       .  S
C2030      C2031   1.403       .  A
C2030      H2035   1.083       .  S
C2031      C2032   1.401       .  A
C2032      F2033   1.358       .  S
C2037      C2038   1.403   1_455  A
C2037      H2044   1.083       .  S
C2038      C2039   1.405       .  A
C2039      C2040   1.396       .  A
C2039      F2046   1.358       .  S
C2040      H2045   1.083       .  S
C2041      C2042   1.410       .  A
C2042      F2043   1.358       .  S
C2047      C2048   1.407       .  A
C2047      C2052   1.401       .  A
C2047      H2054   1.083       .  S
C2048      C2049   1.410       .  A
C2049      C2050   1.393       .  A
C2049      F2056   1.358       .  S
C2050      C2051   1.399       .  A
C2050      H2055   1.084       .  S
C2051      C2052   1.404       .  A
C2052      F2053   1.356       .  S
C2057      C2058   1.403       .  A
C2057      C2062   1.405       .  A
C2057      H2064   1.083       .  S
C2058      C2059   1.402       .  A
C2059      C2060   1.393       .  A
C2059      F2066   1.358       .  S
C2060      C2061   1.408       .  A
C2060      H2065   1.083       .  S
C2061      C2062   1.414       .  A
C2062      F2063   1.357       .  S
C2067      C2068   1.408       .  A
C2067      C2072   1.398       .  A
C2067      H2074   1.083       .  S
C2068      C2069   1.410       .  A
C2069      C2070   1.399       .  A
C2069      F2076   1.357       .  S
C2070      C2071   1.406       .  A
C2070      H2075   1.083       .  S
C2071      C2072   1.409       .  A
C2072      F2073   1.358       .  S
C2077      C2078   1.408       .  A
C2077      C2082   1.404       .  A
C2077      H2084   1.083       .  S
C2078      C2079   1.410       .  A
C2079      C2080   1.394       .  A
C2079      F2086   1.357       .  S
C2080      C2081   1.400       .  A
C2080      H2085   1.084       .  S
C2081      C2082   1.405       .  A
C2082      F2083   1.356       .  S
C2087      C2092   1.406       .  A
C2087      H2094   1.083       .  S
C2088      C2089   1.398       .  A
C2089      C2090   1.389       .  A
C2089      F2096   1.358       .  S
C2090      C2091   1.408       .  A
C2090      H2095   1.083       .  S
C2092      F2093   1.357       .  S
C2097      C2098   1.408       .  A
C2097      C2102   1.401       .  A
C2097      H2104   1.083       .  S
C2098      C2099   1.405       .  A
C2099      C2100   1.401       .  A
C2099      F2106   1.357       .  S
C2100      C2101   1.411       .  A
C2100      H2105   1.083       .  S
C2101      C2102   1.409       .  A
C2102      F2103   1.358       .  S
C2107      C2108   1.405       .  A
C2107      C2112   1.395       .  A
C2107      H2114   1.083       .  S
C2108      C2109   1.408       .  A
C2109      C2110   1.395       .  A
C2109      F2116   1.357       .  S
C2110      C2111   1.403       .  A
C2110      H2115   1.084       .  S
C2111      C2112   1.406       .  A
C2112      F2113   1.358       .  S
C2117      C2118   1.404       .  A
C2117      C2122   1.395       .  A
C2117      H2124   1.083       .  S
C2118      C2119   1.412       .  A
C2119      C2120   1.399       .  A
C2119      F2126   1.357       .  S
C2120      C2121   1.404       .  A
C2120      H2125   1.083       .  S
C2121      C2122   1.411       .  A
C2122      F2123   1.358       .  S
C2127      C2128   1.404       .  A
C2127      C2132   1.402       .  A
C2128      C2129   1.410       .  A
C2129      C2130   1.398       .  A
C2129      F2136   1.357       .  S
C2130      C2131   1.404       .  A
C2130      H2135   1.083       .  S
C2131      C2132   1.414       .  A
C2132      F2133   1.358       .  S
C2137      C2138   1.410       .  A
C2137      C2142   1.405       .  A
C2137      H2144   1.083       .  S
C2138      C2139   1.413       .  A
C2139      C2140   1.395       .  A
C2139      F2146   1.358       .  S
C2140      C2141   1.399       .  A
C2140      H2145   1.084       .  S
C2141      C2142   1.404       .  A
C2142      F2143   1.357       .  S
C2147      C2148   1.408       .  A
C2147      C2152   1.394       .  A
C2147      H2154   1.083       .  S
C2148      C2149   1.411       .  A
C2149      C2150   1.401       .  A
C2149      F2156   1.357       .  S
C2150      C2151   1.404       .  A
C2150      H2155   1.083       .  S
C2151      C2152   1.405       .  A
C2152      F2153   1.358       .  S
C2157      C2158   1.409       .  A
C2157      C2162   1.393       .  A
C2157      H2164   1.083       .  S
C2158      C2159   1.413       .  A
C2159      C2160   1.406       .  A
C2159      F2166   1.357       .  S
C2160      C2161   1.403       .  A
C2160      H2165   1.083       .  S
C2161      C2162   1.399       .  A
C2162      F2163   1.358       .  S
C2167      C2168   1.403       .  A
C2167      C2172   1.401       .  A
C2167      H2174   1.083       .  S
C2168      C2169   1.407       .  A
C2169      C2170   1.396       .  A
C2169      F2176   1.358       .  S
C2170      C2171   1.405       .  A
C2170      H2175   1.083       .  S
C2171      C2172   1.413       .  A
C2172      F2173   1.358       .  S
C2177      C2178   1.409       .  A
C2177      C2182   1.394       .  A
C2177      H2184   1.083       .  S
C2178      C2179   1.412       .  A
C2179      C2180   1.403       .  A
C2179      F2186   1.356       .  S
C2180      C2181   1.401       .  A
C2180      H2185   1.083       .  S
C2181      C2182   1.402       .  A
C2182      F2183   1.358       .  S
C2187      C2188   1.407       .  A
C2187      C2192   1.395       .  A
C2187      H2194   1.083       .  S
C2188      C2189   1.408       .  A
C2189      C2190   1.392       .  A
C2189      F2196   1.358       .  S
C2190      C2191   1.405       .  A
C2191      C2192   1.408       .  A
C2192      F2193   1.358       .  S
C2197      C2202   1.393       .  A
C2199      C2200   1.403       .  A
C2200      C2201   1.401       .  A
C2200      H2205   1.083       .  S
C2201      C2202   1.399       .  A
C2202      F2203   1.358       .  S
C2207      C2208   1.410       .  A
C2207      C2212   1.401       .  A
C2207      H2214   1.083       .  S
C2208      C2209   1.410       .  A
C2209      C2210   1.393       .  A
C2209      F2216   1.358       .  S
C2210      C2211   1.401       .  A
C2210      H2215   1.084       .  S
C2211      C2212   1.401       .  A
C2217      C2218   1.403       .  A
C2217      C2222   1.404       .  A
C2217      H2224   1.083       .  S
C2218      C2219   1.399       .  A
C2219      C2220   1.391       .  A
C2219      F2226   1.358       .  S
C2220      C2221   1.407       .  A
C2220      H2225   1.083       .  S
C2221      C2222   1.412       .  A
C2222      F2223   1.357       .  S
C2227      C2228   1.408       .  A
C2227      C2232   1.399       .  A
C2227      H2234   1.083       .  S
C2228      C2229   1.407       .  A
C2229      C2230   1.397       .  A
C2229      F2236   1.358       .  S
C2230      C2231   1.406       .  A
C2230      H2235   1.083       .  S
C2231      C2232   1.406       .  A
C2232      F2233   1.357       .  S
C2237      C2238   1.407       .  A
C2237      C2242   1.392       .  A
C2237      H2244   1.083       .  S
C2238      C2239   1.412       .  A
C2239      C2240   1.401       .  A
C2239      F2246   1.357       .  S
C2240      C2241   1.400       .  A
C2240      H2245   1.083       .  S
C2241      C2242   1.400       .  A
C2242      F2243   1.358       .  S
C2247      C2248   1.409       .  A
C2247      C2252   1.402       .  A
C2249      C2250   1.394       .  A
C2249      F2256   1.358       .  S
C2250      H2255   1.083       .  S
C2251      C2252   1.408       .  A
C2252      F2253   1.357       .  S
