geometry optimzed in LAMMPS
_audit_creation_date              2020-11-30 
_audit_creation_method            'lammps2cif' 
_symmetry_space_group_name_H-M    'P1' 
_symmetry_Int_Tables_number       1 
_symmetry_cell_setting            triclinic 
loop_ 
_symmetry_equiv_pos_as_xyz 
  x,y,z 
_cell_length_a                    33.21328909 
_cell_length_b                    42.62547392790437 
_cell_length_c                    39.20200840675934 
_cell_angle_alpha                 89.726273354399 
_cell_angle_beta                  89.85012144191984 
_cell_angle_gamma                 90.05257870781739 
loop_ 
_atom_site_label 
_atom_site_type_symbol 
_atom_site_fract_x 
_atom_site_fract_y 
_atom_site_fract_z 
_atom_site_charge 
C1          C  0.18564558  0.82664279  0.37385608     0.79900
N2          N  0.17215481  0.81937636  0.40574297    -0.78400
C3          C  0.14632918  0.83880384  0.42222800     0.82400
N4          N  0.13405196  0.86548116  0.40650852    -0.78300
C5          C  0.14704129  0.87302817  0.37473192     0.82500
N6          N  0.17287604  0.85348861  0.35847970    -0.80000
C7          C  0.70239789  0.84344848  0.07046486     0.79900
N8          N  0.71542586  0.86940856  0.08737173    -0.78400
C9          C  0.73988146  0.89054568  0.07147440     0.82400
N10         N  0.75223813  0.88504232  0.03910203    -0.78300
C11         C  0.74045759  0.85894105  0.02218821     0.82500
N12         N  0.71517097  0.83830526  0.03791818    -0.80000
Zn13       Zn  0.89789870  0.80575845  0.73061316     1.49700
Zn14       Zn  0.97737358  0.83922603  0.70435013     1.49400
Zn15       Zn  0.97751410  0.80460638  0.77585091     1.49100
Zn16       Zn  0.97512673  0.76482592  0.70649404     1.49500
O17         O  0.95685953  0.80330911  0.72941717    -1.84400
O18         O  0.87682773  0.84460829  0.70683563    -0.75100
O19         O  0.01115700  0.86733716  0.73311038    -0.74900
O20         O  0.93225506  0.80654531  0.81015876    -0.74400
O21         O  0.93289632  0.86539944  0.68572956    -0.75100
O22         O  0.87666654  0.80694247  0.77884350    -0.74700
O23         O  0.01155524  0.84312121  0.78326756    -0.75300
O24         O  0.01230749  0.73980443  0.73719952    -0.74600
O25         O  0.01032187  0.82601231  0.66484485    -0.75400
O26         O  0.01208982  0.76691933  0.78551299    -0.74800
O27         O  0.00567785  0.77416306  0.66244607    -0.75300
O28         O  0.92719032  0.73842573  0.69375919    -0.75200
O29         O  0.87453677  0.76850193  0.70660725    -0.75000
C30         C  0.89485542  0.86549016  0.68922409     0.76800
C31         C  0.02200671  0.86595475  0.76412659     0.77300
C32         C  0.89403389  0.80780528  0.80774792     0.76300
C33         C  0.02384544  0.74358131  0.76791125     0.76700
C34         C  0.01822646  0.80017452  0.65030640     0.77800
C35         C  0.88939141  0.74358692  0.69391714     0.76800
C36         C  0.21645742  0.59231739  0.88086832     0.79900
N37         N  0.22957499  0.59842146  0.91305081    -0.78400
C38         C  0.25427770  0.57793171  0.92944981     0.82400
N39         N  0.26570324  0.55127225  0.91334773    -0.78300
C40         C  0.25313844  0.54500615  0.88122843     0.82500
N41         N  0.22861503  0.56564221  0.86500378    -0.80000
C42         C  0.70394608  0.59311605  0.57470382     0.79900
N43         N  0.68888118  0.60079767  0.54352171    -0.78400
C44         C  0.66166174  0.58190305  0.52799046     0.82400
N45         N  0.64931533  0.55533657  0.54414061    -0.78300
C46         C  0.66389126  0.54732876  0.57529458     0.82500
N47         N  0.69124162  0.56637062  0.59046678    -0.80000
Zn48       Zn  0.43866984  0.58581827  0.20757810     1.49700
Zn49       Zn  0.51542493  0.62544628  0.23157895     1.49400
Zn50       Zn  0.43650880  0.66051386  0.20249820     1.49100
Zn51       Zn  0.43390043  0.62402854  0.27522972     1.49500
O52         O  0.45629658  0.62430029  0.22921180    -1.84400
O53         O  0.48562107  0.56242005  0.18871294    -0.75100
O54         O  0.53735132  0.66330413  0.20618942    -0.74900
O55         O  0.40205511  0.64672032  0.16235996    -0.74400
O56         O  0.53950381  0.58710869  0.20888491    -0.75100
O57         O  0.40228557  0.59503557  0.16889295    -0.74700
O58         O  0.48338930  0.68662241  0.18428347    -0.75300
O59         O  0.39998216  0.66200011  0.28174255    -0.74600
O60         O  0.53492442  0.62695963  0.28055159    -0.75400
O61         O  0.40089564  0.68768633  0.23214803    -0.74800
O62         O  0.47790682  0.62514449  0.31019891    -0.75300
O63         O  0.39945141  0.58559336  0.28541847    -0.75200
O64         O  0.40752417  0.55713094  0.23883640    -0.75000
C65         C  0.52359841  0.56499702  0.19177985     0.76800
C66         C  0.52149662  0.68497108  0.18815530     0.77300
C67         C  0.39066420  0.61948785  0.15314567     0.76300
C68         C  0.38913082  0.68491810  0.26300645     0.76700
C69         C  0.51619921  0.62628519  0.30897913     0.77800
C70         C  0.39295449  0.56058813  0.26860896     0.76800
C71         C  0.22161367  0.32832711  0.38332420     0.79900
N72         N  0.23351478  0.32178421  0.41580280    -0.78400
C73         C  0.25842536  0.34175551  0.43254553     0.82400
N74         N  0.27199486  0.36796051  0.41639427    -0.78300
C75         C  0.26109319  0.37446550  0.38378016     0.82500
N76         N  0.23568637  0.35460838  0.36748348    -0.80000
C77         C  0.72369078  0.34935239  0.07464879     0.79900
N78         N  0.70844036  0.34066255  0.04379213    -0.78400
C79         C  0.67750039  0.35692089  0.02953840     0.82400
N80         N  0.66194718  0.38173144  0.04654187    -0.78300
C81         C  0.67689335  0.39080464  0.07704296     0.82500
N82         N  0.70775397  0.37451224  0.09115061    -0.80000
Zn83       Zn  0.44543479  0.26725029  0.70936395     1.49700
Zn84       Zn  0.52408888  0.30620027  0.73511776     1.49400
Zn85       Zn  0.44356836  0.34162539  0.71157782     1.49100
Zn86       Zn  0.44514916  0.30416981  0.78101555     1.49500
O87         O  0.46482685  0.30447843  0.73419223    -1.84400
O88         O  0.49294489  0.24155336  0.69318653    -0.75100
O89         O  0.54463533  0.34593101  0.71193731    -0.74900
O90         O  0.41525542  0.33107921  0.66846352    -0.74400
O91         O  0.54642902  0.26898603  0.70977746    -0.75100
O92         O  0.41214412  0.27911433  0.66718562    -0.74700
O93         O  0.48797441  0.37049909  0.69833436    -0.75300
O94         O  0.41037988  0.34172385  0.79096400    -0.74600
O95         O  0.54634538  0.30561615  0.78368609    -0.75400
O96         O  0.40497406  0.36576160  0.74088338    -0.74800
O97         O  0.49056150  0.30452875  0.81486573    -0.75300
O98         O  0.41168425  0.26588652  0.78954069    -0.75200
O99         O  0.41150149  0.23984965  0.74050683    -0.75000
C100        C  0.53098524  0.24538580  0.69477181     0.76800
C101        C  0.52620871  0.36933943  0.69896719     0.77300
C102        C  0.40420433  0.30586300  0.65409710     0.76300
C103        C  0.39617828  0.36361656  0.77238355     0.76700
C104        C  0.52881112  0.30534062  0.81267709     0.77800
C105        C  0.40078068  0.24255888  0.77161709     0.76800
C106        C  0.21006633  0.08766478  0.88108900     0.79900
N107        N  0.19672546  0.09405745  0.91320179    -0.78400
C108        C  0.16673527  0.07675405  0.92753822     0.82400
N109        N  0.15029578  0.05298019  0.90943565    -0.78300
C110        C  0.16315070  0.04621318  0.87745305     0.82500
N111        N  0.19303092  0.06376081  0.86327759    -0.80000
C112        C  0.72462318  0.09870740  0.57883340     0.79900
N113        N  0.73688052  0.07196534  0.59487357    -0.78400
C114        C  0.76789986  0.05502020  0.58192735     0.82400
N115        N  0.78619570  0.06461626  0.55281303    -0.78300
C116        C  0.77386294  0.09078254  0.53615555     0.82500
N117        N  0.74320328  0.10791423  0.54943081    -0.80000
Zn118      Zn  0.94333039  0.16272790  0.25125014     1.49700
Zn119      Zn  0.94042946  0.12666081  0.17906414     1.49400
Zn120      Zn  0.01857608  0.12119829  0.22551867     1.49100
Zn121      Zn  0.93532359  0.08845778  0.24730873     1.49500
O122        O  0.95965038  0.12501904  0.22584727    -1.84400
O123        O  0.90982258  0.19118547  0.22143593    -0.75100
O124        O  0.98642684  0.12672280  0.14578652    -0.74900
O125        O  0.04357322  0.15751668  0.25039221    -0.74400
O126        O  0.90779896  0.16552912  0.17214545    -0.75100
O127        O  0.99200124  0.18733064  0.26631324    -0.74700
O128        O  0.04126131  0.12069734  0.17732019    -0.75300
O129        O  0.97774964  0.05882405  0.26263700    -0.74600
O130        O  0.90567687  0.08940460  0.16684004    -0.75400
O131        O  0.03601845  0.08115516  0.24889689    -0.74800
O132        O  0.89881128  0.06444219  0.21619749    -0.75300
O133        O  0.90437351  0.09998067  0.28882281    -0.75200
O134        O  0.91107094  0.15152103  0.29387360    -0.75000
C135        C  0.89826952  0.18891724  0.19057273     0.76800
C136        C  0.02438881  0.12332002  0.14828159     0.77300
C137        C  0.02969554  0.18200460  0.26474954     0.76300
C138        C  0.01600944  0.05862621  0.26207073     0.76700
C139        C  0.89113795  0.06698347  0.18455577     0.77800
C140        C  0.89783829  0.12527915  0.30492881     0.76800
C141        C  0.83684432  0.08524940  0.45615230    -0.11100
C142        C  0.82485699  0.11199243  0.43784705     0.06000
C143        C  0.79786018  0.13313497  0.45302647    -0.09900
C144        C  0.78180253  0.12680356  0.48542755    -0.11500
C145        C  0.79279065  0.09936498  0.50318132    -0.01300
C146        C  0.82111037  0.07903291  0.48838917    -0.10400
C147        C  0.83995066  0.11682773  0.40266505     0.06000
H148        H  0.78823547  0.15396230  0.43940664     0.08000
H149        H  0.76025849  0.14304525  0.49624180     0.11400
H150        H  0.83059220  0.05781295  0.50134830     0.11700
H151        H  0.85828668  0.06889959  0.44534323     0.08000
C152        C  0.85462776  0.14613101  0.39171955    -0.11100
C153        C  0.87237406  0.14937418  0.35941534    -0.10400
C154        C  0.87550863  0.12338696  0.33759930    -0.01300
C155        C  0.85909987  0.09450952  0.34816274    -0.11500
C156        C  0.84152281  0.09130458  0.38024394    -0.09900
H157        H  0.85378274  0.16613857  0.40859537     0.08000
H158        H  0.88473066  0.17192726  0.35197577     0.11700
H159        H  0.86059048  0.07406478  0.33192069     0.11400
H160        H  0.82965909  0.06861356  0.38777716     0.08000
C161        C  0.14831464  0.11705616  0.01271180    -0.11100
C162        C  0.11422353  0.10077514  0.02455349     0.06000
C163        C  0.09920981  0.07567380  0.00538658    -0.09900
C164        C  0.11705688  0.06751223  0.97449790    -0.11500
C165        C  0.15025442  0.08440660  0.96173899    -0.01300
C166        C  0.16608562  0.10907565  0.98140642    -0.10400
C167        C  0.09271383  0.11022290  0.05599118     0.06000
H168        H  0.07329880  0.06250822  0.01423801     0.08000
H169        H  0.10412760  0.04823508  0.96029757     0.11400
H170        H  0.19167818  0.12248850  0.97238693     0.11700
H171        H  0.16037870  0.13654116  0.02714457     0.08000
C172        C  0.11279292  0.11276165  0.08735817    -0.11100
C173        C  0.09088639  0.11796374  0.11747475    -0.10400
C174        C  0.04869787  0.12110507  0.11655578    -0.01300
C175        C  0.02916918  0.12011955  0.08479242    -0.11500
C176        C  0.05090186  0.11460466  0.05496461    -0.09900
H177        H  0.14502192  0.10940864  0.08871090     0.08000
H178        H  0.10685473  0.11870622  0.14153592     0.11700
H179        H  0.99682974  0.12258055  0.08301720     0.11400
H180        H  0.03483501  0.11309139  0.03098197     0.08000
C181        C  0.56881828  0.17206528  0.65032319    -0.11100
C182        C  0.60937310  0.17976355  0.64463012     0.06000
C183        C  0.62420692  0.20857503  0.65637648    -0.09900
C184        C  0.59886902  0.22950992  0.67325631    -0.11500
C185        C  0.55799067  0.22229746  0.67831652    -0.01300
C186        C  0.54320326  0.19326833  0.66677699    -0.10400
C187        C  0.63646496  0.15814105  0.62623959     0.06000
H188        H  0.65548753  0.21481071  0.65257668     0.08000
H189        H  0.61123905  0.25163659  0.68183445     0.11400
H190        H  0.51191165  0.18699992  0.67038769     0.11700
H191        H  0.55679280  0.14993280  0.64140249     0.08000
C192        C  0.64044574  0.12677273  0.63673731    -0.11100
C193        C  0.66860517  0.10719204  0.62095496    -0.10400
C194        C  0.69278358  0.11852472  0.59407583    -0.01300
C195        C  0.68752289  0.14962043  0.58280379    -0.11500
C196        C  0.65986897  0.16925997  0.59891040    -0.09900
H197        H  0.62273190  0.11777682  0.65783578     0.08000
H198        H  0.67178770  0.08328778  0.63011766     0.11700
H199        H  0.70556857  0.15910614  0.56216855     0.11400
H200        H  0.65697696  0.19334411  0.59021326     0.08000
C201        C  0.29283485  0.14795323  0.87022548    -0.11100
C202        C  0.29755543  0.14906503  0.83455657     0.06000
C203        C  0.27485233  0.12829318  0.81449191    -0.09900
C204        C  0.24735841  0.10761409  0.82964983    -0.11500
C205        C  0.24151624  0.10756157  0.86517454    -0.01300
C206        C  0.26493315  0.12766525  0.88530278    -0.10400
C207        C  0.32477744  0.17265972  0.81844247     0.06000
H208        H  0.27724758  0.12867540  0.78694317     0.08000
H209        H  0.22972633  0.09242714  0.81341800     0.11400
H210        H  0.26156614  0.12788052  0.91279104     0.11700
H211        H  0.31055736  0.16291007  0.88662167     0.08000
C212        C  0.32922253  0.20254873  0.83301137    -0.11100
C213        C  0.35419766  0.22498337  0.81792786    -0.10400
C214        C  0.37485845  0.21835952  0.78751526    -0.01300
C215        C  0.37037866  0.18864340  0.77268899    -0.11500
C216        C  0.34583234  0.16593847  0.78812230    -0.09900
H217        H  0.31277865  0.20896396  0.85581890     0.08000
H218        H  0.35674931  0.24777018  0.82981868     0.11700
H219        H  0.38619678  0.18281883  0.74936502     0.11400
H220        H  0.34367987  0.14305464  0.77643246     0.08000
C221        C  0.55463703  0.31637178  0.90589009    -0.11100
C222        C  0.59687473  0.31810437  0.90528935     0.06000
C223        C  0.61704474  0.31257395  0.87427316    -0.09900
C224        C  0.59515071  0.30731808  0.84420225    -0.11500
C225        C  0.55276606  0.30727276  0.84463433    -0.01300
C226        C  0.53289151  0.31105347  0.87606915    -0.10400
C227        C  0.61901462  0.32792055  0.93649735     0.06000
H228        H  0.64951398  0.31371275  0.87298187     0.08000
H229        H  0.61143209  0.30420929  0.82044193     0.11400
H230        H  0.50038938  0.31089474  0.87754768     0.11700
H231        H  0.53815983  0.31980146  0.92950007     0.08000
C232        C  0.60313984  0.35202511  0.95678094    -0.11100
C233        C  0.62252069  0.36136392  0.98650113    -0.10400
C234        C  0.65849149  0.34696788  0.99702876    -0.01300
C235        C  0.67494676  0.32308807  0.97657728    -0.11500
C236        C  0.65545420  0.31378283  0.94645614    -0.09900
H237        H  0.57569081  0.36391571  0.94953644     0.08000
H238        H  0.60881908  0.37987667  0.00141259     0.11700
H239        H  0.70262841  0.31158503  0.98388489     0.11400
H240        H  0.66845783  0.29510955  0.93132203     0.08000
C241        C  0.78520603  0.30994194  0.14387058    -0.11100
C242        C  0.80555708  0.28669211  0.12531213     0.06000
C243        C  0.80172725  0.28630726  0.08959821    -0.09900
C244        C  0.77624623  0.30739092  0.07299917    -0.11500
C245        C  0.75440751  0.32966476  0.09168485    -0.01300
C246        C  0.76002540  0.33131128  0.12720024    -0.10400
C247        C  0.82883806  0.26179512  0.14302602     0.06000
H248        H  0.81790978  0.26925061  0.07443848     0.08000
H249        H  0.77303690  0.30582778  0.04558442     0.11400
H250        H  0.74358319  0.34820285  0.14236443     0.11700
H251        H  0.78732571  0.31078849  0.17140619     0.08000
C252        C  0.85223372  0.26842979  0.17198701    -0.11100
C253        C  0.87419465  0.24462573  0.18812962    -0.10400
C254        C  0.87341452  0.21390381  0.17532530    -0.01300
C255        C  0.84951937  0.20721830  0.14682921    -0.11500
C256        C  0.82728196  0.23080183  0.13103462    -0.09900
H257        H  0.85420538  0.29211061  0.18175897     0.08000
H258        H  0.89254394  0.25038048  0.21000929     0.11700
H259        H  0.84789267  0.18363237  0.13674005     0.11400
H260        H  0.80862551  0.22466506  0.10946796     0.08000
C261        C  0.36487677  0.33940835  0.57133722    -0.11100
C262        C  0.33586711  0.31716031  0.56154359     0.06000
C263        C  0.33116190  0.28991092  0.58166994    -0.09900
C264        C  0.35419604  0.28550551  0.61128624    -0.11500
C265        C  0.38190415  0.30848735  0.62155733    -0.01300
C266        C  0.38723273  0.33527657  0.60105442    -0.10400
C267        C  0.31119693  0.32268917  0.53032696     0.06000
H268        H  0.30903250  0.27231889  0.57503752     0.08000
H269        H  0.34944167  0.26468682  0.62668645     0.11400
H270        H  0.40887113  0.35316658  0.60800315     0.11700
H271        H  0.37052623  0.36011570  0.55597582     0.08000
C272        C  0.30016830  0.35341805  0.52092166    -0.11100
C273        C  0.28157141  0.35936647  0.48969075    -0.10400
C274        C  0.27260870  0.33470302  0.46741459    -0.01300
C275        C  0.28072766  0.30375588  0.47769510    -0.11500
C276        C  0.30019256  0.29780670  0.50874435    -0.09900
H277        H  0.30670006  0.37308391  0.53738054     0.08000
H278        H  0.27490392  0.38340560  0.48261866     0.11700
H279        H  0.27410024  0.28433591  0.46090477     0.11400
H280        H  0.30823419  0.27386911  0.51501851     0.08000
C281        C  0.12357771  0.21514012  0.30532405    -0.11100
C282        C  0.11177071  0.24599298  0.31265321     0.06000
C283        C  0.07316559  0.25611657  0.30313864    -0.09900
C284        C  0.04635222  0.23541580  0.28742412    -0.11500
C285        C  0.05808232  0.20440052  0.28040049    -0.01300
C286        C  0.09710197  0.19464777  0.28911950    -0.10400
C287        C  0.13960262  0.26719423  0.33081921     0.06000
H288        H  0.06340313  0.27985357  0.30862014     0.08000
H289        H  0.01656493  0.24360197  0.28080523     0.11400
H290        H  0.10698206  0.17086822  0.28404782     0.11700
H291        H  0.15330750  0.20694698  0.31210035     0.08000
C292        C  0.15935068  0.25691792  0.36044423    -0.11100
C293        C  0.18583361  0.27676446  0.37765776    -0.10400
C294        C  0.19347407  0.30720393  0.36526753    -0.01300
C295        C  0.17377108  0.31738361  0.33548713    -0.11500
C296        C  0.14685258  0.29766650  0.31856499    -0.09900
H297        H  0.15394180  0.23353190  0.37051146     0.08000
H298        H  0.20051684  0.26820583  0.40045609     0.11700
H299        H  0.17888365  0.34075811  0.32531640     0.11400
H300        H  0.13215573  0.30600107  0.29567308     0.08000
C301        C  0.32079303  0.44873853  0.36635528    -0.11100
C302        C  0.31036828  0.45571724  0.33243819     0.06000
C303        C  0.28360055  0.43563555  0.31538174    -0.09900
C304        C  0.26736682  0.40933970  0.33200707    -0.11500
C305        C  0.27768097  0.40249957  0.36603883    -0.01300
C306        C  0.30467637  0.42249955  0.38291955    -0.10400
C307        C  0.32826363  0.48351760  0.31499404     0.06000
H308        H  0.27485796  0.44044998  0.28927189     0.08000
H309        H  0.24678489  0.39440274  0.31817893     0.11400
H310        H  0.31364543  0.41785639  0.40901534     0.11700
H311        H  0.34197703  0.46331832  0.37996250     0.08000
C312        C  0.33344909  0.51189297  0.33262804    -0.11100
C313        C  0.35342756  0.53722974  0.31731181    -0.10400
C314        C  0.36877318  0.53477131  0.28398448    -0.01300
C315        C  0.36205722  0.50683500  0.26584417    -0.11500
C316        C  0.34203869  0.48151211  0.28115620    -0.09900
H317        H  0.32241029  0.51439086  0.35849130     0.08000
H318        H  0.35758225  0.55851510  0.33186233     0.11700
H319        H  0.37317326  0.50419400  0.24001335     0.11400
H320        H  0.33867863  0.45997718  0.26693006     0.08000
C321        C  0.55948438  0.50563504  0.12780196    -0.11100
C322        C  0.59505061  0.49415599  0.14290797     0.06000
C323        C  0.60833923  0.50810070  0.17342392    -0.09900
C324        C  0.58594039  0.53201572  0.18885246    -0.11500
C325        C  0.54932926  0.54179728  0.17458169    -0.01300
C326        C  0.53656269  0.52862799  0.14379304    -0.10400
C327        C  0.61687253  0.46711806  0.12728390     0.06000
H328        H  0.63529737  0.49997070  0.18611256     0.08000
H329        H  0.59637874  0.54196112  0.21260044     0.11400
H330        H  0.50880358  0.53629525  0.13190126     0.11700
H331        H  0.54895400  0.49684014  0.10358735     0.08000
C332        C  0.59546691  0.44491654  0.10798752    -0.11100
C333        C  0.61529598  0.42038242  0.09186781    -0.10400
C334        C  0.65693098  0.41651570  0.09549597    -0.01300
C335        C  0.67849800  0.43753855  0.11595342    -0.11500
C336        C  0.65875546  0.46291125  0.13134672    -0.09900
H337        H  0.56309888  0.44613018  0.10535924     0.08000
H338        H  0.59781941  0.40408953  0.07680589     0.11700
H339        H  0.71072481  0.43494032  0.11910743     0.11400
H340        H  0.67652317  0.47945611  0.14572080     0.08000
C341        C  0.64571377  0.48464706  0.64294972    -0.11100
C342        C  0.61270288  0.46851087  0.62916118     0.06000
C343        C  0.59872959  0.47706950  0.59663316    -0.09900
C344        C  0.61615101  0.50204487  0.57889910    -0.11500
C345        C  0.64804273  0.51916274  0.59319127    -0.01300
C346        C  0.66317260  0.50983376  0.62519124    -0.10400
C347        C  0.59125848  0.44384655  0.64891353     0.06000
H348        H  0.57390041  0.46463912  0.58503855     0.08000
H349        H  0.60386435  0.50833867  0.55421128     0.11400
H350        H  0.68787119  0.52237471  0.63681847     0.11700
H351        H  0.65709534  0.47853680  0.66801853     0.08000
C352        C  0.61230831  0.42075278  0.66739661    -0.11100
C353        C  0.59132447  0.39671335  0.68433132    -0.10400
C354        C  0.54905045  0.39555124  0.68327980    -0.01300
C355        C  0.52818344  0.41932797  0.66573715    -0.11500
C356        C  0.54903377  0.44309734  0.64880099    -0.09900
H357        H  0.64482910  0.42080649  0.66792456     0.08000
H358        H  0.60824444  0.37878704  0.69779398     0.11700
H359        H  0.49566963  0.41933230  0.66452968     0.11400
H360        H  0.53193749  0.46098298  0.63542825     0.08000
C361        C  0.63346816  0.62831727  0.44835555    -0.11100
C362        C  0.60527306  0.60811361  0.43333532     0.06000
C363        C  0.59759384  0.57886371  0.44848550    -0.09900
C364        C  0.61674554  0.57016132  0.47863209    -0.11500
C365        C  0.64392174  0.59066332  0.49459067    -0.01300
C366        C  0.65251954  0.61971064  0.47888343    -0.10400
C367        C  0.58270880  0.61723377  0.40239914     0.06000
H368        H  0.57640057  0.56269987  0.43698477     0.08000
H369        H  0.60969051  0.54750024  0.48968065     0.11400
H370        H  0.67337943  0.63604877  0.49048114     0.11700
H371        H  0.63981943  0.65098777  0.43700519     0.08000
C372        C  0.54062305  0.61464391  0.40228261    -0.11100
C373        C  0.51900509  0.61898296  0.37219818    -0.10400
C374        C  0.53909533  0.62564351  0.34138332    -0.01300
C375        C  0.58115085  0.62974119  0.34182654    -0.11500
C376        C  0.60279971  0.62577711  0.37219846    -0.09900
H377        H  0.52451957  0.60837332  0.42541765     0.08000
H378        H  0.48668069  0.61588542  0.37288261     0.11700
H379        H  0.59745148  0.63514472  0.31854536     0.11400
H380        H  0.63526260  0.62787797  0.37178880     0.08000
C381        C  0.31934260  0.42851074  0.78273049    -0.11100
C382        C  0.32387343  0.43619806  0.81742234     0.06000
C383        C  0.35135268  0.41869570  0.83714064    -0.09900
C384        C  0.37361028  0.39441967  0.82268925    -0.11500
C385        C  0.36995992  0.38755136  0.78793069    -0.01300
C386        C  0.34252694  0.40471327  0.76804990    -0.19200
C387        C  0.30162110  0.46304144  0.83289545     0.06000
H388        H  0.35684144  0.42426099  0.86360063     0.08000
H389        H  0.39491050  0.38178715  0.83850921     0.11400
H390        H  0.33896357  0.39968470  0.74118263     0.11700
H391        H  0.29799431  0.44086502  0.76676940     0.08000
C392        C  0.29132347  0.48969190  0.81333622    -0.11100
C393        C  0.27381926  0.51590923  0.82874777    -0.10400
C394        C  0.26719178  0.51632803  0.86408697    -0.01300
C395        C  0.27617340  0.48953134  0.88346474    -0.11500
C396        C  0.29248984  0.46303838  0.86799121    -0.09900
H397        H  0.29819522  0.49095048  0.78639122     0.08000
H398        H  0.26722371  0.53640163  0.81327543     0.11700
H399        H  0.27071628  0.48910579  0.91070997     0.11400
H400        H  0.29838201  0.44270303  0.88382205     0.08000
C401        C  0.31409762  0.57088693  0.01111675    -0.11100
C402        C  0.30226629  0.59780454  0.02905339     0.06000
C403        C  0.27377043  0.61804779  0.01430658    -0.09900
C404        C  0.25761638  0.61152446  0.98212354    -0.11500
C405        C  0.26980838  0.58467664  0.96408548    -0.01300
C406        C  0.29803954  0.56437428  0.97913928    -0.10400
C407        C  0.32061803  0.60464956  0.06265649     0.06000
H408        H  0.26386586  0.63882065  0.02772609     0.08000
H409        H  0.23580394  0.62757459  0.97132791     0.11400
H410        H  0.30832964  0.54354403  0.96602421     0.11700
H411        H  0.33651927  0.55511828  0.02151355     0.08000
C412        C  0.32748449  0.58011646  0.08590219    -0.11100
C413        C  0.34897996  0.58539962  0.11575416    -0.10400
C414        C  0.36416099  0.61538520  0.12322049    -0.01300
C415        C  0.35547501  0.64039080  0.10094155    -0.11500
C416        C  0.33386482  0.63504810  0.07085770    -0.09900
H417        H  0.31687227  0.55660269  0.08065311     0.08000
H418        H  0.35451341  0.56567146  0.13262071     0.11700
H419        H  0.36658324  0.66377399  0.10611537     0.11400
H420        H  0.32906884  0.65438828  0.05333082     0.08000
C421        C  0.79933683  0.70911523  0.64900984    -0.11100
C422        C  0.81146392  0.67789307  0.64427054     0.06000
C423        C  0.84893910  0.66809520  0.65692099    -0.09900
C424        C  0.87424408  0.68935851  0.67340666    -0.11500
C425        C  0.86214243  0.72062715  0.67801166    -0.01300
C426        C  0.82431424  0.73021681  0.66593951    -0.10400
C427        C  0.78504702  0.65574559  0.62596644     0.06000
H428        H  0.85899774  0.64415532  0.65340537     0.08000
H429        H  0.90324675  0.68138175  0.68248902     0.11400
H430        H  0.81435381  0.75426643  0.66892733     0.11700
H431        H  0.77041253  0.71712878  0.63975566     0.08000
C432        C  0.77767122  0.62564464  0.63920725    -0.11100
C433        C  0.75156993  0.60516276  0.62245965    -0.10400
C434        C  0.73265232  0.61433837  0.59192716    -0.01300
C435        C  0.74073153  0.64429591  0.57841389    -0.11500
C436        C  0.76652397  0.66482945  0.59533011    -0.09900
H437        H  0.79144443  0.61819406  0.66293758     0.08000
H438        H  0.74607298  0.58226659  0.63352632     0.11700
H439        H  0.72671407  0.65212283  0.55493324     0.11400
H440        H  0.77213510  0.68780404  0.58442642     0.08000
C441        C  0.10033904  0.67814584  0.77869213    -0.11100
C442        C  0.10616660  0.67804969  0.81424137     0.06000
C443        C  0.08405990  0.69926062  0.83423881    -0.09900
C444        C  0.05742201  0.72040989  0.81911975    -0.11500
C445        C  0.05169820  0.72062413  0.78364127    -0.01300
C446        C  0.07326769  0.69914300  0.76355759    -0.10400
C447        C  0.13525474  0.65617914  0.83062296     0.06000
H448        H  0.08704524  0.69938335  0.86172066     0.08000
H449        H  0.04104398  0.73648922  0.83534239     0.11400
H450        H  0.06972760  0.69891175  0.73611322     0.11700
H451        H  0.11723049  0.66240120  0.76247318     0.08000
C452        C  0.13995620  0.62532926  0.81871452    -0.11100
C453        C  0.16666960  0.60471222  0.83478269    -0.10400
C454        C  0.18898438  0.61437765  0.86330007    -0.01300
C455        C  0.18451199  0.64523322  0.87506151    -0.11500
C456        C  0.15819060  0.66593414  0.85877809    -0.09900
H457        H  0.12241022  0.61689435  0.79741850     0.08000
H458        H  0.16926421  0.58099991  0.82521795     0.11700
H459        H  0.20158673  0.65350335  0.89672498     0.11400
H460        H  0.15603908  0.68971732  0.86817075     0.08000
C461        C  0.81579244  0.92725945  0.67084176    -0.11100
C462        C  0.83231636  0.94204372  0.64185366     0.06000
C463        C  0.86760721  0.92969767  0.62731756    -0.09900
C464        C  0.88730859  0.90450541  0.64254822    -0.11500
C465        C  0.87175217  0.89051662  0.67220911    -0.01300
C466        C  0.83526985  0.90153494  0.68583065    -0.10400
C467        C  0.81475992  0.97137046  0.62779851     0.06000
H468        H  0.88046081  0.93989745  0.60441243     0.08000
H469        H  0.91504208  0.89606969  0.63118922     0.11400
H470        H  0.82275726  0.89109948  0.70873529     0.11700
H471        H  0.78871926  0.93631359  0.68272554     0.08000
C472        C  0.77282361  0.97588475  0.62587023    -0.11100
C473        C  0.75715538  0.00367009  0.61198836    -0.10400
C474        C  0.78320500  0.02696350  0.59945982    -0.01300
C475        C  0.82490396  0.02263190  0.60180332    -0.11500
C476        C  0.84048678  0.99534427  0.61615343    -0.09900
H477        H  0.75227909  0.95775924  0.63438235     0.08000
H478        H  0.72481829  0.00652107  0.60998910     0.11700
H479        H  0.84547883  0.04046423  0.59254941     0.11400
H480        H  0.87288167  0.99308785  0.61816066     0.08000
C481        C  0.08280183  0.91439826  0.82589159    -0.11100
C482        C  0.08855020  0.94236555  0.80742871     0.06000
C483        C  0.07424245  0.94449671  0.77385957    -0.09900
C484        C  0.05329568  0.91938217  0.75944299    -0.11500
C485        C  0.04646632  0.89171196  0.77835699    -0.01300
C486        C  0.06197287  0.88934339  0.81153467    -0.10400
C487        C  0.10732352  0.96965953  0.82422747     0.06000
H488        H  0.07806140  0.96592984  0.75925112     0.08000
H489        H  0.04161793  0.92193939  0.73381791     0.11400
H490        H  0.05753122  0.86828346  0.82664619     0.11700
H491        H  0.09405478  0.91207916  0.85167988     0.08000
C492        C  0.09470409  0.97801417  0.85708654    -0.11100
C493        C  0.11273031  0.00293819  0.87400046    -0.10400
C494        C  0.14395730  0.02019964  0.85851654    -0.01300
C495        C  0.15622113  0.01220992  0.82527070    -0.11500
C496        C  0.13787428  0.98718690  0.80818555    -0.09900
H497        H  0.07069005  0.96523817  0.86972424     0.08000
H498        H  0.10215595  0.00851582  0.89940712     0.11700
H499        H  0.18008086  0.02509918  0.81258351     0.11400
H500        H  0.14807468  0.98111108  0.78280180     0.08000
C501        C  0.78329454  0.97115830  0.08698090    -0.11100
C502        C  0.79570369  0.96904905  0.12124081     0.06000
C503        C  0.78641659  0.94142522  0.13964131    -0.09900
C504        C  0.76617302  0.91651301  0.12404713    -0.11500
C505        C  0.75573665  0.91827800  0.08947708    -0.01300
C506        C  0.76409948  0.94593522  0.07121174    -0.10400
C507        C  0.81913676  0.99506489  0.13731801     0.06000
H508        H  0.79598227  0.93841383  0.16580193     0.08000
H509        H  0.76050875  0.89527343  0.13855222     0.11400
H510        H  0.75605526  0.94794802  0.04451983     0.11700
H511        H  0.78859402  0.99219498  0.07209964     0.08000
C512        C  0.84488082  0.01430966  0.11761074    -0.11100
C513        C  0.86738472  0.03821449  0.13277199    -0.10400
C514        C  0.86549519  0.04303777  0.16812631    -0.01300
C515        C  0.83994182  0.02396553  0.18788793    -0.11500
C516        C  0.81671931  0.00055426  0.17266257    -0.09900
H517        H  0.84856132  0.01054211  0.09051400     0.08000
H518        H  0.88716802  0.05233100  0.11693604     0.11700
H519        H  0.83767653  0.02726967  0.21520629     0.11400
H520        H  0.79671603  0.98693176  0.18873580     0.08000
C521        C  0.86557272  0.82579508  0.89907809    -0.11100
C522        C  0.82333393  0.82597746  0.89760305     0.06000
C523        C  0.80429898  0.81806998  0.86689134    -0.09900
C524        C  0.82718412  0.81126602  0.83780484    -0.11500
C525        C  0.86954006  0.81187441  0.83907159    -0.01300
C526        C  0.88841098  0.81867306  0.87021816    -0.10400
C527        C  0.79962930  0.83542331  0.92791147     0.06000
H528        H  0.77173871  0.81815768  0.86511681     0.08000
H529        H  0.81173608  0.80614734  0.81419009     0.11400
H530        H  0.92093103  0.81938056  0.87211688     0.11700
H531        H  0.88096095  0.83142914  0.92260408     0.08000
C532        C  0.76681008  0.81742902  0.93943999    -0.11100
C533        C  0.74659655  0.82543219  0.96959660    -0.10400
C534        C  0.75858522  0.85182868  0.98846404    -0.01300
C535        C  0.79036175  0.87048848  0.97592737    -0.11500
C536        C  0.81074132  0.86229100  0.94615309    -0.09900
H537        H  0.75769887  0.79657832  0.92574722     0.08000
H538        H  0.72221534  0.81061811  0.97848180     0.11700
H539        H  0.80043389  0.89105350  0.98962290     0.11400
H540        H  0.83551645  0.87682619  0.93750158     0.08000
C541        C  0.65251116  0.79406382  0.13948340    -0.11100
C542        C  0.62567327  0.77560603  0.12050087     0.06000
C543        C  0.62423361  0.77966876  0.08491855    -0.09900
C544        C  0.64933277  0.80155039  0.06866000    -0.11500
C545        C  0.67578785  0.82030774  0.08770032    -0.01300
C546        C  0.67697678  0.81642734  0.12331103    -0.10400
C547        C  0.59903147  0.75238328  0.13779550     0.06000
H548        H  0.60402246  0.76560929  0.06965620     0.08000
H549        H  0.64771391  0.80405727  0.04117059     0.11400
H550        H  0.69726232  0.83038198  0.13861929     0.11700
H551        H  0.65409351  0.79151275  0.16696845     0.08000
C552        C  0.61463335  0.73143438  0.16216967    -0.11100
C553        C  0.58950657  0.70957784  0.17845166    -0.10400
C554        C  0.54806852  0.70843275  0.17108616    -0.01300
C555        C  0.53248438  0.72957257  0.14681739    -0.11500
C556        C  0.55774253  0.75114196  0.13021182    -0.09900
H557        H  0.64638533  0.73171500  0.16829264     0.08000
H558        H  0.60258911  0.69360891  0.19691490     0.11700
H559        H  0.50080769  0.72930996  0.14044975     0.11400
H560        H  0.54487843  0.76719302  0.11171644     0.08000
C561        C  0.08609758  0.94616544  0.35832667    -0.11100
C562        C  0.09682823  0.95364223  0.32464861     0.06000
C563        C  0.12588415  0.93543833  0.30785493    -0.09900
C564        C  0.14299278  0.90945985  0.32422361    -0.11500
C565        C  0.13140778  0.90150961  0.35772534    -0.01300
C566        C  0.10324660  0.92046788  0.37470465    -0.10400
C567        C  0.07653142  0.97991720  0.30717976     0.06000
H568        H  0.13449115  0.94079383  0.28176687     0.08000
H569        H  0.16465749  0.89536199  0.31049630     0.11400
H570        H  0.09380319  0.91522575  0.40058872     0.11700
H571        H  0.06422523  0.96017885  0.37195576     0.08000
C572        C  0.03458548  0.98286412  0.30955460    -0.11100
C573        C  0.01507712  0.00833859  0.29471312    -0.10400
C574        C  0.03717153  0.03152327  0.27719471    -0.01300
C575        C  0.07916676  0.02838725  0.27440878    -0.11500
C576        C  0.09871635  0.00265064  0.28914393    -0.09900
H577        H  0.01679772  0.96536818  0.32299873     0.08000
H578        H  0.98271099  0.00996629  0.29723817     0.11700
H579        H  0.09694890  0.04585770  0.26095856     0.11400
H580        H  0.13111286  0.00086935  0.28717850     0.08000
C581        C  0.05783055  0.78218931  0.56165166    -0.11100
C582        C  0.08055201  0.80939935  0.55502414     0.06000
C583        C  0.08535914  0.83169318  0.58083119    -0.09900
C584        C  0.06634143  0.82773643  0.61216443    -0.11500
C585        C  0.04203500  0.80137256  0.61850482    -0.01300
C586        C  0.03863176  0.77816772  0.59329743    -0.10400
C587        C  0.09721794  0.81607842  0.52081157     0.06000
H588        H  0.10323237  0.85260683  0.57644557     0.08000
H589        H  0.06995779  0.84580856  0.63126680     0.11400
H590        H  0.01986016  0.75771821  0.59752060     0.11700
H591        H  0.05360994  0.76477920  0.54192861     0.08000
C592        C  0.12102157  0.79405563  0.50355812    -0.11100
C593        C  0.13774211  0.80147867  0.47168295    -0.10400
C594        C  0.13036305  0.83088409  0.45646583    -0.01300
C595        C  0.10633703  0.85272513  0.47389990    -0.11500
C596        C  0.09002705  0.84541458  0.50567377    -0.09900
H597        H  0.12715159  0.77137116  0.51497700     0.08000
H598        H  0.15610726  0.78415433  0.45888828     0.11700
H599        H  0.09996491  0.87559317  0.46301524     0.11400
H600        H  0.07148129  0.86267800  0.51842455     0.08000
C601        C  0.25438353  0.75812574  0.35511583    -0.11100
C602        C  0.27095395  0.76677762  0.32337279     0.06000
C603        C  0.25776751  0.79461168  0.30767903    -0.09900
C604        C  0.22951701  0.81375915  0.32378141    -0.11500
C605        C  0.21403070  0.80560142  0.35604305    -0.01300
C606        C  0.22643890  0.77738918  0.37134558    -0.10400
C607        C  0.30260954  0.74719839  0.30728815     0.06000
H608        H  0.27009147  0.80212215  0.28338856     0.08000
H609        H  0.22044292  0.83526549  0.31117998     0.11400
H610        H  0.21478402  0.77020411  0.39599779     0.11700
H611        H  0.26302371  0.73642463  0.36752607     0.08000
C612        C  0.33126358  0.73185755  0.32771814    -0.11100
C613        C  0.36002677  0.71232950  0.31308841    -0.10400
C614        C  0.36132208  0.70811935  0.27764246    -0.01300
C615        C  0.33389994  0.72436983  0.25692577    -0.11500
C616        C  0.30453904  0.74355126  0.27164463    -0.09900
H617        H  0.33148878  0.73485909  0.35511687     0.08000
H618        H  0.38115102  0.70029930  0.32958794     0.11700
H619        H  0.33412307  0.72125319  0.22952106     0.11400
H620        H  0.28271400  0.75477643  0.25517831     0.08000
loop_ 
_geom_bond_atom_site_label_1 
_geom_bond_atom_site_label_2 
_geom_bond_distance 
_geom_bond_site_symmetry_2 
_ccdc_geom_bond_type 
C1            N2   1.361       .  A
C1            N6   1.360       .  A
C1          C605   1.478       .  S
N2            C3   1.357       .  A
C3            N4   1.354       .  A
C3          C594   1.479       .  S
N4            C5   1.354       .  A
C5            N6   1.356       .  A
C5          C565   1.478       .  S
C7            N8   1.363       .  A
C7           N12   1.362       .  A
C7          C545   1.483       .  S
N8            C9   1.360       .  A
C9           N10   1.354       .  A
C9          C505   1.477       .  S
N10          C11   1.356       .  A
C11          N12   1.360       .  A
C11         C534   1.484   1_554  S
Zn13         O17   1.962       .  S
Zn13         O18   2.023       .  S
Zn13         O22   2.017       .  S
Zn13         O29   2.006       .  S
Zn14         O17   1.938       .  S
Zn14         O19   1.996   1_655  S
Zn14         O21   1.990       .  S
Zn14         O25   1.978   1_655  S
Zn15         O17   1.948       .  S
Zn15         O20   2.016       .  S
Zn15         O23   2.015   1_655  S
Zn15         O26   2.011   1_655  S
Zn16         O17   1.970       .  S
Zn16         O24   2.027   1_655  S
Zn16         O27   2.038   1_655  S
Zn16         O28   2.014       .  S
O18          C30   1.272       .  A
O19          C31   1.270       .  A
O20          C32   1.274       .  A
O21          C30   1.271       .  A
O22          C32   1.273       .  A
O23          C31   1.274       .  A
O24          C33   1.275       .  A
O25          C34   1.270       .  A
O26          C33   1.274       .  A
O27          C34   1.274       .  A
O28          C35   1.275       .  A
O29          C35   1.274       .  A
C30         C465   1.473       .  S
C31         C485   1.478       .  S
C32         C525   1.482       .  S
C33         C445   1.481       .  S
C34         C585   1.475       .  S
C35         C425   1.474       .  S
C36          N37   1.362       .  A
C36          N41   1.360       .  A
C36         C454   1.480       .  S
N37          C38   1.359       .  A
C38          N39   1.357       .  A
C38         C405   1.483       .  S
N39          C40   1.355       .  A
C40          N41   1.357       .  A
C40         C394   1.473       .  S
C42          N43   1.361       .  A
C42          N47   1.360       .  A
C42         C434   1.480       .  S
N43          C44   1.358       .  A
C44          N45   1.357       .  A
C44         C365   1.483       .  S
N45          C46   1.357       .  A
C46          N47   1.358       .  A
C46         C345   1.483       .  S
Zn48         O52   1.941       .  S
Zn48         O53   1.994       .  S
Zn48         O57   1.980       .  S
Zn48         O64   2.011       .  S
Zn49         O52   1.967       .  S
Zn49         O54   2.026       .  S
Zn49         O56   2.028       .  S
Zn49         O60   2.029       .  S
Zn50         O52   1.975       .  S
Zn50         O55   2.037       .  S
Zn50         O58   2.039       .  S
Zn50         O61   2.025       .  S
Zn51         O52   1.950       .  S
Zn51         O59   1.990       .  S
Zn51         O62   2.007       .  S
Zn51         O63   2.035       .  S
O53          C65   1.272       .  A
O54          C66   1.275       .  A
O55          C67   1.275       .  A
O56          C65   1.274       .  A
O57          C67   1.270       .  A
O58          C66   1.277       .  A
O59          C68   1.272       .  A
O60          C69   1.275       .  A
O61          C68   1.275       .  A
O62          C69   1.273       .  A
O63          C70   1.274       .  A
O64          C70   1.272       .  A
C65         C325   1.472       .  S
C66         C554   1.489       .  S
C67         C414   1.479       .  S
C68         C614   1.471       .  S
C69         C374   1.482       .  S
C70         C314   1.486       .  S
C71          N72   1.362       .  A
C71          N76   1.360       .  A
C71         C294   1.481       .  S
N72          C73   1.359       .  A
C73          N74   1.357       .  A
C73         C274   1.477       .  S
N74          C75   1.357       .  A
C75          N76   1.358       .  A
C75         C305   1.485       .  S
C77          N78   1.365       .  A
C77          N82   1.362       .  A
C77         C245   1.480       .  S
N78          C79   1.360       .  A
C79          N80   1.355       .  A
C79         C234   1.487   1_554  S
N80          C81   1.354       .  A
C81          N82   1.356       .  A
C81         C334   1.473       .  S
Zn83         O87   1.974       .  S
Zn83         O88   2.024       .  S
Zn83         O92   2.053       .  S
Zn83         O99   2.025       .  S
Zn84         O87   1.970       .  S
Zn84         O89   2.035       .  S
Zn84         O91   2.017       .  S
Zn84         O95   2.044       .  S
Zn85         O87   1.945       .  S
Zn85         O90   1.989       .  S
Zn85         O93   1.986       .  S
Zn85         O96   2.007       .  S
Zn86         O87   1.947       .  S
Zn86         O94   2.014       .  S
Zn86         O97   2.012       .  S
Zn86         O98   2.000       .  S
O88         C100   1.276       .  A
O89         C101   1.275       .  A
O90         C102   1.270       .  A
O91         C100   1.276       .  A
O92         C102   1.276       .  A
O93         C101   1.271       .  A
O94         C103   1.273       .  A
O95         C104   1.276       .  A
O96         C103   1.271       .  A
O97         C104   1.273       .  A
O98         C105   1.273       .  A
O99         C105   1.275       .  A
C100        C185   1.481       .  S
C101        C354   1.480       .  S
C102        C265   1.481       .  S
C103        C385   1.475       .  S
C104        C225   1.488       .  S
C105        C214   1.478       .  S
C106        N107   1.362       .  A
C106        N111   1.361       .  A
C106        C205   1.480       .  S
N107        C108   1.358       .  A
C108        N109   1.355       .  A
C108        C165   1.485       .  S
N109        C110   1.356       .  A
C110        N111   1.358       .  A
C110        C494   1.482       .  S
C112        N113   1.362       .  A
C112        N117   1.362       .  A
C112        C194   1.481       .  S
N113        C114   1.358       .  A
C114        N115   1.353       .  A
C114        C474   1.468       .  S
N115        C116   1.354       .  A
C116        N117   1.358       .  A
C116        C145   1.480       .  S
Zn118       O122   1.971       .  S
Zn118       O123   2.018       .  S
Zn118       O127   2.017       .  S
Zn118       O134   2.037       .  S
Zn119       O122   1.944       .  S
Zn119       O124   2.006       .  S
Zn119       O126   1.998       .  S
Zn119       O130   2.023       .  S
Zn120       O122   1.964   1_455  S
Zn120       O125   2.013       .  S
Zn120       O128   2.033       .  S
Zn120       O131   2.020       .  S
Zn121       O122   1.942       .  S
Zn121       O129   1.986       .  S
Zn121       O132   2.006       .  S
Zn121       O133   1.987       .  S
O123        C135   1.274       .  A
O124        C136   1.273   1_655  A
O125        C137   1.274       .  A
O126        C135   1.274       .  A
O127        C137   1.274   1_655  A
O128        C136   1.275       .  A
O129        C138   1.271   1_655  A
O130        C139   1.273       .  A
O131        C138   1.274       .  A
O132        C139   1.271       .  A
O133        C140   1.271       .  A
O134        C140   1.275       .  A
C135        C254   1.474       .  S
C136        C174   1.484       .  S
C137        C285   1.478       .  S
C138        C574   1.476       .  S
C139        C514   1.480       .  S
C140        C154   1.480       .  S
C141        C142   1.403       .  A
C141        C146   1.390       .  A
C141        H151   1.084       .  S
C142        C147   1.480       .  S
C142        C143   1.405       .  A
C143        C144   1.401       .  A
C143        H148   1.083       .  S
C144        C145   1.407       .  A
C144        H149   1.083       .  S
C145        C146   1.406       .  A
C146        H150   1.083       .  S
C147        C152   1.405       .  A
C147        C156   1.403       .  A
C152        C153   1.402       .  A
C152        H157   1.082       .  S
C153        C154   1.406       .  A
C153        H158   1.083       .  S
C154        C155   1.406       .  A
C155        C156   1.391       .  A
C155        H159   1.083       .  S
C156        H160   1.083       .  S
C161        C162   1.404       .  A
C161        C166   1.404   1_554  A
C161        H171   1.084       .  S
C162        C167   1.481       .  S
C162        C163   1.402       .  A
C163        C164   1.393   1_554  A
C163        H168   1.082       .  S
C164        C165   1.406       .  A
C164        H169   1.084       .  S
C165        C166   1.409       .  A
C166        H170   1.082       .  S
C167        C172   1.405       .  A
C167        C176   1.402       .  A
C172        C173   1.404       .  A
C172        H177   1.081       .  S
C173        C174   1.408       .  A
C173        H178   1.084       .  S
C174        C175   1.406       .  A
C175        C176   1.394       .  A
C175        H179   1.082   1_455  S
C176        H180   1.084       .  S
C181        C182   1.403       .  A
C181        C186   1.400       .  A
C181        H191   1.084       .  S
C182        C187   1.478       .  S
C182        C183   1.403       .  A
C183        C184   1.395       .  A
C183        H188   1.082       .  S
C184        C185   1.405       .  A
C184        H189   1.084       .  S
C185        C186   1.408       .  A
C186        H190   1.082       .  S
C187        C192   1.404       .  A
C187        C196   1.402       .  A
C192        C193   1.399       .  A
C192        H197   1.082       .  S
C193        C194   1.407       .  A
C193        H198   1.084       .  S
C194        C195   1.406       .  A
C195        C196   1.395       .  A
C195        H199   1.082       .  S
C196        H200   1.085       .  S
C201        C202   1.407       .  A
C201        C206   1.395       .  A
C201        H211   1.082       .  S
C202        C207   1.489       .  S
C202        C203   1.407       .  A
C203        C204   1.398       .  A
C203        H208   1.083       .  S
C204        C205   1.406       .  A
C204        H209   1.083       .  S
C205        C206   1.404       .  A
C206        H210   1.083       .  S
C207        C212   1.406       .  A
C207        C216   1.408       .  A
C212        C213   1.394       .  A
C212        H217   1.083       .  S
C213        C214   1.404       .  A
C213        H218   1.083       .  S
C214        C215   1.404       .  A
C215        C216   1.399       .  A
C215        H219   1.083       .  S
C216        H220   1.082       .  S
C221        C222   1.405       .  A
C221        C226   1.395       .  A
C221        H231   1.085       .  S
C222        C227   1.490       .  S
C222        C223   1.408       .  A
C223        C224   1.405       .  A
C223        H228   1.081       .  S
C224        C225   1.408       .  A
C224        H229   1.085       .  S
C225        C226   1.406       .  A
C226        H230   1.081       .  S
C227        C232   1.404       .  A
C227        C236   1.408       .  A
C232        C233   1.392       .  A
C232        H237   1.081       .  S
C233        C234   1.406       .  A
C233        H238   1.084   1_556  S
C234        C235   1.409       .  A
C235        C236   1.407       .  A
C235        H239   1.081       .  S
C236        H240   1.084       .  S
C241        C242   1.405       .  A
C241        C246   1.398       .  A
C241        H251   1.083       .  S
C242        C247   1.484       .  S
C242        C243   1.406       .  A
C243        C244   1.395       .  A
C243        H248   1.083       .  S
C244        C245   1.403       .  A
C244        H249   1.083       .  S
C245        C246   1.407       .  A
C246        H250   1.083       .  S
C247        C252   1.407       .  A
C247        C256   1.405       .  A
C252        C253   1.400       .  A
C252        H257   1.083       .  S
C253        C254   1.405       .  A
C253        H258   1.082       .  S
C254        C255   1.402       .  A
C255        C256   1.392       .  A
C255        H259   1.083       .  S
C256        H260   1.082       .  S
C261        C262   1.407       .  A
C261        C266   1.394       .  A
C261        H271   1.082       .  S
C262        C267   1.492       .  S
C262        C263   1.409       .  A
C263        C264   1.404       .  A
C263        H268   1.083       .  S
C264        C265   1.405       .  A
C264        H269   1.082       .  S
C265        C266   1.404       .  A
C266        H270   1.084       .  S
C267        C272   1.408       .  A
C267        C276   1.408       .  A
C272        C273   1.395       .  A
C272        H277   1.082       .  S
C273        C274   1.402       .  A
C273        H278   1.083       .  S
C274        C275   1.404       .  A
C275        C276   1.402       .  A
C275        H279   1.083       .  S
C276        H280   1.082       .  S
C281        C282   1.404       .  A
C281        C286   1.395       .  A
C281        H291   1.081       .  S
C282        C287   1.479       .  S
C282        C283   1.404       .  A
C283        C284   1.399       .  A
C283        H288   1.085       .  S
C284        C285   1.407       .  A
C284        H289   1.081       .  S
C285        C286   1.404       .  A
C286        H290   1.085       .  S
C287        C292   1.404       .  A
C287        C296   1.403       .  A
C292        C293   1.397       .  A
C292        H297   1.085       .  S
C293        C294   1.406       .  A
C293        H298   1.081       .  S
C294        C295   1.407       .  A
C295        C296   1.397       .  A
C295        H299   1.084       .  S
C296        H300   1.081       .  S
C301        C302   1.405       .  A
C301        C306   1.396       .  A
C301        H311   1.082       .  S
C302        C307   1.488       .  S
C302        C303   1.406       .  A
C303        C304   1.401       .  A
C303        H308   1.083       .  S
C304        C305   1.408       .  A
C304        H309   1.082       .  S
C305        C306   1.406       .  A
C306        H310   1.084       .  S
C307        C312   1.407       .  A
C307        C316   1.405       .  A
C312        C313   1.399       .  A
C312        H317   1.083       .  S
C313        C314   1.406       .  A
C313        H318   1.083       .  S
C314        C315   1.408       .  A
C315        C316   1.399       .  A
C315        H319   1.083       .  S
C316        H320   1.082       .  S
C321        C322   1.410       .  A
C321        C326   1.392       .  A
C321        H331   1.081       .  S
C322        C327   1.495       .  S
C322        C323   1.410       .  A
C323        C324   1.401       .  A
C323        H328   1.082       .  S
C324        C325   1.403       .  A
C324        H329   1.082       .  S
C325        C326   1.400       .  A
C326        H330   1.084       .  S
C327        C332   1.408       .  A
C327        C336   1.412       .  A
C332        C333   1.390       .  A
C332        H337   1.082       .  S
C333        C334   1.400       .  A
C333        H338   1.083       .  S
C334        C335   1.403       .  A
C335        C336   1.403       .  A
C335        H339   1.084       .  S
C336        H340   1.081       .  S
C341        C342   1.405       .  A
C341        C346   1.401       .  A
C341        H351   1.085       .  S
C342        C347   1.483       .  S
C342        C343   1.405       .  A
C343        C344   1.393       .  A
C343        H348   1.082       .  S
C344        C345   1.405       .  A
C344        H349   1.084       .  S
C345        C346   1.408       .  A
C346        H350   1.082       .  S
C347        C352   1.407       .  A
C347        C356   1.403       .  A
C352        C353   1.402       .  A
C352        H357   1.080       .  S
C353        C354   1.406       .  A
C353        H358   1.085       .  S
C354        C355   1.406       .  A
C355        C356   1.392       .  A
C355        H359   1.081       .  S
C356        H360   1.085       .  S
C361        C362   1.404       .  A
C361        C366   1.403       .  A
C361        H371   1.082       .  S
C362        C367   1.478       .  S
C362        C363   1.401       .  A
C363        C364   1.392       .  A
C363        H368   1.085       .  S
C364        C365   1.406       .  A
C364        H369   1.082       .  S
C365        C366   1.409       .  A
C366        H370   1.084       .  S
C367        C372   1.402       .  A
C367        C376   1.404       .  A
C372        C373   1.394       .  A
C372        H377   1.084       .  S
C373        C374   1.406       .  A
C373        H378   1.082       .  S
C374        C375   1.408       .  A
C375        C376   1.402       .  A
C375        H379   1.084       .  S
C376        H380   1.082       .  S
C381        C382   1.409       .  A
C381        C386   1.399       .  A
C381        H391   1.082       .  S
C382        C387   1.493       .  S
C382        C383   1.409       .  A
C383        C384   1.394       .  A
C383        H388   1.081       .  S
C384        C385   1.401       .  A
C384        H389   1.084       .  S
C385        C386   1.404       .  A
C386        H390   1.083       .  S
C387        C392   1.410       .  A
C387        C396   1.408       .  A
C392        C393   1.399       .  A
C392        H397   1.081       .  S
C393        C394   1.402       .  A
C393        H398   1.084       .  S
C394        C395   1.402       .  A
C395        C396   1.394       .  A
C395        H399   1.083       .  S
C396        H400   1.082       .  S
C401        C402   1.404       .  A
C401        C406   1.393   1_554  A
C401        H411   1.083       .  S
C402        C407   1.483       .  S
C402        C403   1.405       .  A
C403        C404   1.401   1_554  A
C403        H408   1.083       .  S
C404        C405   1.407       .  A
C404        H409   1.082       .  S
C405        C406   1.406       .  A
C406        H410   1.083       .  S
C407        C412   1.403       .  A
C407        C416   1.407       .  A
C412        C413   1.392       .  A
C412        H417   1.083       .  S
C413        C414   1.406       .  A
C413        H418   1.083       .  S
C414        C415   1.405       .  A
C415        C416   1.402       .  A
C415        H419   1.083       .  S
C416        H420   1.083       .  S
C421        C422   1.404       .  A
C421        C426   1.395       .  A
C421        H431   1.083       .  S
C422        C427   1.478       .  S
C422        C423   1.404       .  A
C423        C424   1.397       .  A
C423        H428   1.083       .  S
C424        C425   1.405       .  A
C424        H429   1.082       .  S
C425        C426   1.404       .  A
C426        H430   1.084       .  S
C427        C432   1.403       .  A
C427        C436   1.404       .  A
C432        C433   1.397       .  A
C432        H437   1.084       .  S
C433        C434   1.407       .  A
C433        H438   1.081       .  S
C434        C435   1.405       .  A
C435        C436   1.395       .  A
C435        H439   1.084       .  S
C436        H440   1.082       .  S
C441        C442   1.407       .  A
C441        C446   1.400       .  A
C441        H451   1.083       .  S
C442        C447   1.488       .  S
C442        C443   1.406       .  A
C443        C444   1.395       .  A
C443        H448   1.082       .  S
C444        C445   1.404       .  A
C444        H449   1.083       .  S
C445        C446   1.406       .  A
C446        H450   1.083       .  S
C447        C452   1.406       .  A
C447        C456   1.407       .  A
C452        C453   1.398       .  A
C452        H457   1.082       .  S
C453        C454   1.406       .  A
C453        H458   1.083       .  S
C454        C455   1.404       .  A
C455        C456   1.396       .  A
C455        H459   1.083       .  S
C456        H460   1.083       .  S
C461        C462   1.407       .  A
C461        C466   1.401       .  A
C461        H471   1.084       .  S
C462        C467   1.484       .  S
C462        C463   1.406       .  A
C463        C464   1.391       .  A
C463        H468   1.082       .  S
C464        C465   1.401       .  A
C464        H469   1.084       .  S
C465        C466   1.405       .  A
C466        H470   1.082       .  S
C467        C472   1.408       .  A
C467        C476   1.405       .  A
C472        C473   1.402   1_565  A
C472        H477   1.081       .  S
C473        C474   1.403       .  A
C473        H478   1.084       .  S
C474        C475   1.401       .  A
C475        C476   1.391   1_545  A
C475        H479   1.082       .  S
C476        H480   1.083       .  S
C481        C482   1.404       .  A
C481        C486   1.394       .  A
C481        H491   1.083       .  S
C482        C487   1.478       .  S
C482        C483   1.403       .  A
C483        C484   1.399       .  A
C483        H488   1.083       .  S
C484        C485   1.408       .  A
C484        H489   1.083       .  S
C485        C486   1.403       .  A
C486        H490   1.083       .  S
C487        C492   1.401       .  A
C487        C496   1.405       .  A
C492        C493   1.391   1_565  A
C492        H497   1.083       .  S
C493        C494   1.406       .  A
C493        H498   1.083       .  S
C494        C495   1.408       .  A
C495        C496   1.402   1_545  A
C495        H499   1.082       .  S
C496        H500   1.083       .  S
C501        C502   1.408       .  A
C501        C506   1.397       .  A
C501        H511   1.081       .  S
C502        C507   1.497       .  S
C502        C503   1.411       .  A
C503        C504   1.400       .  A
C503        H508   1.082       .  S
C504        C505   1.401       .  A
C504        H509   1.083       .  S
C505        C506   1.404       .  A
C506        H510   1.084       .  S
C507        C512   1.411   1_565  A
C507        C516   1.408   1_565  A
C512        C513   1.399       .  A
C512        H517   1.082       .  S
C513        C514   1.403       .  A
C513        H518   1.083       .  S
C514        C515   1.404       .  A
C515        C516   1.398       .  A
C515        H519   1.083       .  S
C516        H520   1.081   1_545  S
C521        C522   1.404       .  A
C521        C526   1.395       .  A
C521        H531   1.083       .  S
C522        C527   1.481       .  S
C522        C523   1.404       .  A
C523        C524   1.400       .  A
C523        H528   1.084       .  S
C524        C525   1.408       .  A
C524        H529   1.083       .  S
C525        C526   1.405       .  A
C526        H530   1.083       .  S
C527        C532   1.405       .  A
C527        C536   1.403       .  A
C532        C533   1.402       .  A
C532        H537   1.084       .  S
C533        C534   1.407       .  A
C533        H538   1.082       .  S
C534        C535   1.407       .  A
C535        C536   1.394       .  A
C535        H539   1.083       .  S
C536        H540   1.082       .  S
C541        C542   1.405       .  A
C541        C546   1.400       .  A
C541        H551   1.084       .  S
C542        C547   1.487       .  S
C542        C543   1.406       .  A
C543        C544   1.400       .  A
C543        H548   1.083       .  S
C544        C545   1.406       .  A
C544        H549   1.084       .  S
C545        C546   1.406       .  A
C546        H550   1.083       .  S
C547        C552   1.405       .  A
C547        C556   1.405       .  A
C552        C553   1.401       .  A
C552        H557   1.082       .  S
C553        C554   1.408       .  A
C553        H558   1.083       .  S
C554        C555   1.407       .  A
C555        C556   1.401       .  A
C555        H559   1.082       .  S
C556        H560   1.083       .  S
C561        C562   1.402       .  A
C561        C566   1.390       .  A
C561        H571   1.083       .  S
C562        C567   1.475       .  S
C562        C563   1.403       .  A
C563        C564   1.399       .  A
C563        H568   1.084       .  S
C564        C565   1.407       .  A
C564        H569   1.082       .  S
C565        C566   1.405       .  A
C566        H570   1.084       .  S
C567        C572   1.402       .  A
C567        C576   1.404   1_565  A
C572        C573   1.391   1_565  A
C572        H577   1.085       .  S
C573        C574   1.406       .  A
C573        H578   1.082   1_455  S
C574        C575   1.405       .  A
C575        C576   1.399       .  A
C575        H579   1.084       .  S
C576        H580   1.081       .  S
C581        C582   1.406       .  A
C581        C586   1.403       .  A
C581        H591   1.084       .  S
C582        C587   1.476       .  S
C582        C583   1.401       .  A
C583        C584   1.389       .  A
C583        H588   1.083       .  S
C584        C585   1.404       .  A
C584        H589   1.084       .  S
C585        C586   1.406       .  A
C586        H590   1.083       .  S
C587        C592   1.403       .  A
C587        C596   1.403       .  A
C592        C593   1.401       .  A
C592        H597   1.083       .  S
C593        C594   1.408       .  A
C593        H598   1.082       .  S
C594        C595   1.405       .  A
C595        C596   1.391       .  A
C595        H599   1.083       .  S
C596        H600   1.083       .  S
C601        C602   1.407       .  A
C601        C606   1.394       .  A
C601        H611   1.082       .  S
C602        C607   1.484       .  S
C602        C603   1.405       .  A
C603        C604   1.396       .  A
C603        H608   1.082       .  S
C604        C605   1.406       .  A
C604        H609   1.083       .  S
C605        C606   1.404       .  A
C606        H610   1.083       .  S
C607        C612   1.405       .  A
C607        C616   1.408       .  A
C612        C613   1.392       .  A
C612        H617   1.082       .  S
C613        C614   1.402       .  A
C613        H618   1.083       .  S
C614        C615   1.403       .  A
C615        C616   1.398       .  A
C615        H619   1.083       .  S
C616        H620   1.082       .  S
