geometry optimzed in LAMMPS
_audit_creation_date              2020-11-30 
_audit_creation_method            'lammps2cif' 
_symmetry_space_group_name_H-M    'P1' 
_symmetry_Int_Tables_number       1 
_symmetry_cell_setting            triclinic 
loop_ 
_symmetry_equiv_pos_as_xyz 
  x,y,z 
_cell_length_a                    21.020693195908148 
_cell_length_b                    21.3177105432899 
_cell_length_c                    34.136833575983694 
_cell_angle_alpha                 90.96637629518763 
_cell_angle_beta                  88.57005371069592 
_cell_angle_gamma                 88.38320687835646 
loop_ 
_atom_site_label 
_atom_site_type_symbol 
_atom_site_fract_x 
_atom_site_fract_y 
_atom_site_fract_z 
_atom_site_charge 
C1          C  0.50251895  0.30795841  0.36132544    -0.02870
C2          C  0.30925855  0.51252901  0.35105759    -0.02870
C3          C  0.69986400  0.51017952  0.35620729    -0.02870
C4          C  0.50587954  0.71418058  0.34991632    -0.02870
C5          C  0.50082055  0.30040542  0.18567501    -0.02870
C6          C  0.29644861  0.50885218  0.17679851    -0.02870
C7          C  0.70100730  0.49910315  0.17838709    -0.02870
C8          C  0.49449575  0.70243090  0.17355678    -0.02870
O9          O  0.06181734  0.56449115  0.47524462    -0.72160
O10         O  0.93581042  0.54447711  0.05536503    -0.72380
O11         O  0.06428593  0.55147357  0.05333261    -0.72240
O12         O  0.93443632  0.55580026  0.47749037    -0.72240
O13         O  0.94479517  0.45460574  0.46944131    -0.72200
O14         O  0.07330328  0.45014696  0.04591637    -0.72220
O15         O  0.94353007  0.44309240  0.04779512    -0.72160
O16         O  0.07159822  0.46308051  0.46803111    -0.72350
V17         V  0.99931354  0.55204317  0.01525447     1.35240
V18         V  0.00811582  0.45465921  0.00809203     1.35170
C19         C  0.08820030  0.51729755  0.45820326     0.77080
C20         C  0.91675232  0.49084819  0.06443163     0.77140
C21         C  0.09193724  0.50010885  0.06186135     0.77010
C22         C  0.91779349  0.50582862  0.46055352     0.76970
O23         O  0.54703643  0.06809619  0.05774130    -0.72160
O24         O  0.54704517  0.94278105  0.47725061    -0.72380
O25         O  0.54808089  0.06857887  0.47927381    -0.72240
O26         O  0.54593191  0.94139024  0.05623335    -0.72240
O27         O  0.44305793  0.95096778  0.06023414    -0.72200
O28         O  0.44510241  0.06667046  0.47738998    -0.72220
O29         O  0.44376160  0.94121256  0.48204068    -0.72160
O30         O  0.44391763  0.07714977  0.05528583    -0.72350
V31         V  0.54518921  0.00519251  0.01770063     1.35240
V32         V  0.44594748  0.00885691  0.01876624     1.35170
C33         C  0.49554810  0.09557947  0.06898643     0.77080
C34         C  0.49529358  0.92006880  0.46647022     0.77140
C35         C  0.49661294  0.08957445  0.46540779     0.77010
C36         C  0.49371943  0.92416335  0.07127596     0.76970
C37         C  0.44186008  0.78060179  0.12636807    -0.09540
C38         C  0.49606497  0.76336306  0.14836245     0.06660
C39         C  0.54660129  0.80694393  0.14775516    -0.03300
C40         C  0.54515135  0.85807172  0.12219038    -0.07750
C41         C  0.49184747  0.87210600  0.09968962     0.05780
C42         C  0.43840982  0.83439261  0.10391550    -0.02780
Br43       Br  0.35759396  0.85221566  0.08046782    -0.02470
H44         H  0.39904616  0.75405013  0.12688622     0.09690
H45         H  0.58548833  0.88859066  0.12087853     0.07710
Br46       Br  0.61773482  0.80584976  0.18198767    -0.02900
C47         C  0.82113184  0.49168088  0.15993877    -0.09540
C48         C  0.75715354  0.49184382  0.14757910     0.06660
C49         C  0.74802991  0.48697448  0.10620900    -0.03300
C50         C  0.80067657  0.48405568  0.07985140    -0.07750
C51         C  0.86318453  0.48537559  0.09306387     0.05780
C52         C  0.87290831  0.48843433  0.13343390    -0.02780
Br53       Br  0.95653688  0.48887965  0.15417678    -0.02470
H54         H  0.83279077  0.49485893  0.19046155     0.09690
H55         H  0.79264983  0.48261196  0.04861478     0.07710
Br56       Br  0.66590309  0.48802494  0.08230764    -0.02900
C57         C  0.58608894  0.54463977  0.16881052    -0.09540
C58         C  0.65160295  0.55488646  0.16571674     0.06660
C59         C  0.66317962  0.61545498  0.14863869    -0.03300
C60         C  0.61196998  0.66191474  0.14569720    -0.07750
C61         C  0.55132859  0.65298898  0.16431671     0.05780
C62         C  0.54393406  0.59278233  0.17890744    -0.02780
Br63       Br  0.47990101  0.57391527  0.21619239    -0.02470
H64         H  0.56607389  0.49954845  0.16899096     0.09690
H65         H  0.62121673  0.70478059  0.13056836     0.07710
Br66       Br  0.74345807  0.63760672  0.12522881    -0.02900
C67         C  0.25359873  0.48405893  0.10933480    -0.09540
C68         C  0.23928074  0.50150035  0.14886920     0.06660
C69         C  0.17299134  0.51247250  0.15888744    -0.03300
C70         C  0.12818552  0.51661044  0.12933145    -0.07750
C71         C  0.14331304  0.49874086  0.09079079     0.05780
C72         C  0.20608365  0.47834881  0.08144838    -0.02780
Br73       Br  0.22934324  0.44003690  0.03187265    -0.02470
H74         H  0.30203623  0.47184701  0.10019306     0.09690
H75         H  0.07950988  0.53004879  0.13700840     0.07710
Br76       Br  0.13205757  0.51269518  0.20996866    -0.02900
C77         C  0.38628590  0.56706174  0.13491922    -0.09540
C78         C  0.33570622  0.56886643  0.16342151     0.06660
C79         C  0.32156453  0.63034653  0.17667270    -0.03300
C80         C  0.37245884  0.67011561  0.18471062    -0.07750
C81         C  0.43083870  0.66451585  0.16290891     0.05780
C82         C  0.42971701  0.61719058  0.13214458    -0.02780
Br83       Br  0.48608743  0.61659608  0.08690185    -0.02470
H84         H  0.39357066  0.52665197  0.11561299     0.09690
H85         H  0.36242342  0.70786245  0.20489006     0.07710
Br86       Br  0.25611241  0.67191908  0.14741110    -0.02900
C87         C  0.48829539  0.25675687  0.11715251    -0.09540
C88         C  0.49961485  0.24322963  0.15691446     0.06660
C89         C  0.50627564  0.17793112  0.16666231    -0.03300
C90         C  0.50587169  0.13170799  0.13710208    -0.07750
C91         C  0.49567955  0.14673833  0.09827636     0.05780
C92         C  0.48578296  0.20965481  0.08835675    -0.02780
Br93       Br  0.47229399  0.23440199  0.03560266    -0.02470
H94         H  0.48283610  0.30495759  0.10801096     0.09690
H95         H  0.51227354  0.08273481  0.14459035     0.07710
Br96       Br  0.51399423  0.14110576  0.21749412    -0.02900
C97         C  0.45174997  0.41106228  0.16838212    -0.09540
C98         C  0.44129789  0.34735793  0.17620087     0.06660
C99         C  0.37463965  0.33350150  0.17220154    -0.03300
C100        C  0.32768480  0.38391914  0.16690526    -0.07750
C101        C  0.34404077  0.44862300  0.17189122     0.05420
C102        C  0.40681590  0.45506227  0.18245798    -0.02780
Br103      Br  0.40824932  0.45546715  0.23720443    -0.02470
H104        H  0.49652333  0.42819997  0.15815449     0.09690
H105        H  0.27878385  0.37242419  0.16162876     0.07710
Br106      Br  0.34484749  0.24935111  0.16935017    -0.02900
C107        C  0.56911784  0.38592675  0.20940994    -0.09540
C108        C  0.56413317  0.34001719  0.18031582     0.06660
C109        C  0.61693645  0.33711210  0.15236605    -0.03300
C110        C  0.66436563  0.38450718  0.15270157    -0.07750
C111        C  0.66216553  0.43519867  0.18046406     0.05780
C112        C  0.61668516  0.42827469  0.21087888    -0.02780
Br113      Br  0.59865649  0.48830810  0.24906373    -0.02470
H114        H  0.53125418  0.39128170  0.23099015     0.09690
H115        H  0.70222858  0.38117733  0.13078574     0.07710
Br116      Br  0.63403228  0.27030746  0.11501253    -0.02900
C117        C  0.45946344  0.75733702  0.28485647    -0.09540
C118        C  0.51343662  0.73258293  0.30464495     0.06660
C119        C  0.56674425  0.71910071  0.27913548    -0.03300
C120        C  0.55775174  0.70626617  0.23925214    -0.07750
C121        C  0.50051704  0.72119110  0.21937190     0.05780
C122        C  0.45591570  0.75759278  0.24314038    -0.02780
Br123      Br  0.39901022  0.81967830  0.22186445    -0.02470
H124        H  0.42017362  0.77804909  0.30215098     0.09690
H125        H  0.59997344  0.69004648  0.22324403     0.07710
Br126      Br  0.65256775  0.74178346  0.28880967    -0.02900
C127        C  0.47252321  0.76476481  0.41553774    -0.09540
C128        C  0.49651571  0.77373450  0.37706185     0.06660
C129        C  0.51941531  0.83527957  0.36899618    -0.03300
C130        C  0.51849595  0.88176166  0.39866929    -0.07750
C131        C  0.49493961  0.87022756  0.43630867     0.05780
C132        C  0.47126199  0.81134562  0.44453185    -0.02780
Br133      Br  0.44114622  0.78986364  0.49585196    -0.02470
H134        H  0.45385750  0.72094115  0.42393614     0.09690
H135        H  0.53638425  0.92780481  0.39231986     0.07710
Br136      Br  0.55407171  0.86497359  0.32035519    -0.02900
C137        C  0.71636437  0.56576211  0.28651491    -0.09540
C138        C  0.72102111  0.51075271  0.30962177     0.06660
C139        C  0.74131409  0.45586545  0.28676576    -0.03300
C140        C  0.74565327  0.45633394  0.24489147    -0.07750
C141        C  0.72809953  0.50949142  0.22229260     0.05780
C142        C  0.72325406  0.56607766  0.24494548    -0.02780
Br143      Br  0.73968399  0.64588763  0.22328468    -0.02470
H144        H  0.70689623  0.61071775  0.29965102     0.09690
H145        H  0.75612268  0.41217622  0.22962926     0.07710
Br146      Br  0.75974875  0.37516712  0.30880454    -0.02900
C147        C  0.81854405  0.48957134  0.36978744    -0.09540
C148        C  0.75734403  0.50946920  0.38396725     0.06660
C149        C  0.75179209  0.52618682  0.42492483    -0.03300
C150        C  0.80589601  0.52949029  0.44760117    -0.07750
C151        C  0.86483496  0.50713095  0.43326778     0.05780
C152        C  0.86992026  0.48291254  0.39480897    -0.02780
Br153      Br  0.94264222  0.43425618  0.37608160    -0.02470
H154        H  0.82686254  0.47516595  0.33973481     0.09690
H155        H  0.80092610  0.54438519  0.47809457     0.07710
Br156      Br  0.67460186  0.53593058  0.45605426    -0.02900
C157        C  0.59454164  0.56521475  0.38504152    -0.09540
C158        C  0.65599868  0.57148003  0.36777718     0.06660
C159        C  0.67455301  0.63573988  0.36655577    -0.03300
C160        C  0.62711655  0.68540377  0.36702386    -0.07750
C161        C  0.56176218  0.67244402  0.36913000     0.05780
C162        C  0.55086101  0.61553426  0.38931665    -0.02780
Br163      Br  0.48514563  0.60395825  0.42816380    -0.02470
H164        H  0.58047203  0.52156461  0.39762327     0.09690
H165        H  0.64120709  0.73361327  0.36533420     0.07710
Br166      Br  0.76226572  0.65906137  0.36451954    -0.02900
C167        C  0.27324049  0.56222584  0.28736049    -0.09540
C168        C  0.28837657  0.50512366  0.30614165     0.06660
C169        C  0.27760544  0.45034014  0.28170777    -0.03300
C170        C  0.26423674  0.45692031  0.24163780    -0.07750
C171        C  0.27357603  0.51328468  0.22180193     0.05780
C172        C  0.26616918  0.56748318  0.24684518    -0.02780
Br173      Br  0.21367997  0.64029853  0.23632213    -0.02470
H174        H  0.26517941  0.60447742  0.30495436     0.09690
H175        H  0.25499735  0.41537753  0.22451371     0.07710
Br176      Br  0.28863137  0.36236227  0.29073145    -0.02900
C177        C  0.18793657  0.52323875  0.36477831    -0.09540
C178        C  0.25061297  0.52079590  0.37937321     0.06660
C179        C  0.25624443  0.52569086  0.42104121    -0.03300
C180        C  0.20215483  0.52690718  0.44545031    -0.07750
C181        C  0.14160023  0.52464585  0.43040748     0.05780
C182        C  0.13437884  0.52746662  0.38987309    -0.02780
Br183      Br  0.05355733  0.54473604  0.36759700    -0.02470
H184        H  0.17906453  0.52306060  0.33380582     0.09690
H185        H  0.20721447  0.53105080  0.47678582     0.07710
Br186      Br  0.33320106  0.53595288  0.44903064    -0.02900
C187        C  0.40643144  0.56827336  0.32762632    -0.09540
C188        C  0.35135864  0.57359541  0.35123898     0.06660
C189        C  0.33828451  0.63528737  0.36800215    -0.03300
C190        C  0.38521111  0.68233163  0.36610364    -0.07750
C191        C  0.44625492  0.67007092  0.34865427     0.05780
C192        C  0.45277014  0.61288839  0.32751802    -0.02780
Br193      Br  0.52862829  0.58785970  0.30172779    -0.02470
H194        H  0.41516231  0.52611687  0.31042628     0.09690
H195        H  0.37306246  0.72848511  0.37803620     0.07710
Br196      Br  0.25657823  0.66523789  0.38799928    -0.02900
C197        C  0.55651348  0.27879738  0.29299649    -0.09540
C198        C  0.50011938  0.28195500  0.31673124     0.06660
C199        C  0.44436069  0.26844459  0.29557237    -0.03300
C200        C  0.44305661  0.27620272  0.25415026    -0.07750
C201        C  0.49959944  0.28023626  0.23081427     0.05780
C202        C  0.55688357  0.27087131  0.25221544    -0.02780
Br203      Br  0.63929179  0.24768252  0.22915157    -0.02470
H204        H  0.60235222  0.28541560  0.30548554     0.09690
H205        H  0.39795395  0.27291310  0.24028348     0.07710
Br206      Br  0.38498863  0.20939595  0.31534156    -0.02900
C207        C  0.45375627  0.24148622  0.41634914    -0.09540
C208        C  0.50541125  0.25072466  0.38960692     0.06660
C209        C  0.55465194  0.20275178  0.38886713    -0.03300
C210        C  0.55049242  0.15102017  0.41363589    -0.07750
C211        C  0.49672565  0.14190921  0.43758161     0.05780
C212        C  0.44658769  0.18663968  0.43719710    -0.02780
Br213      Br  0.36617447  0.17774049  0.46466307    -0.02470
H214        H  0.41652724  0.27604160  0.42199305     0.09690
H215        H  0.58955043  0.11675068  0.41374550     0.07710
Br216      Br  0.63194321  0.20151972  0.35782306    -0.02900
C217        C  0.37764767  0.34266591  0.36803592    -0.09540
C218        C  0.44302581  0.35419333  0.37371306     0.06660
C219        C  0.45121506  0.41303463  0.39271417    -0.03300
C220        C  0.41122375  0.46368495  0.38322765    -0.07750
C221        C  0.35127895  0.45495925  0.36610604     0.05780
C222        C  0.33111055  0.39236401  0.36972655    -0.02780
Br223      Br  0.24430366  0.37163857  0.38244847    -0.02470
H224        H  0.36106573  0.29578768  0.36706423     0.09690
H225        H  0.42611988  0.50926582  0.39188674     0.07710
Br226      Br  0.50616845  0.42427752  0.43628176    -0.02900
C227        C  0.61566686  0.34849345  0.38735316    -0.09540
C228        C  0.56236398  0.35220534  0.36252319     0.06660
C229        C  0.56145738  0.40402498  0.33767551    -0.03300
C230        C  0.60617324  0.44943200  0.33850727    -0.07750
C231        C  0.65841244  0.44915480  0.36200646     0.05780
C232        C  0.66401523  0.39507829  0.38686704    -0.02780
Br233      Br  0.73471319  0.37675992  0.41960125    -0.02470
H234        H  0.61927583  0.31086378  0.40803432     0.09690
H235        H  0.59712416  0.49055120  0.32273301     0.07710
Br236      Br  0.49390479  0.42303959  0.30499702    -0.02900
C237        C  0.50251895  0.30795839  0.86132543    -0.02870
C238        C  0.30925855  0.51252899  0.85105759    -0.02870
C239        C  0.69986399  0.51017952  0.85620729    -0.02870
C240        C  0.50587953  0.71418057  0.84991632    -0.02870
C241        C  0.50082055  0.30040541  0.68567501    -0.02870
C242        C  0.29644861  0.50885219  0.67679851    -0.02870
C243        C  0.70100730  0.49910314  0.67838710    -0.02870
C244        C  0.49449575  0.70243090  0.67355677    -0.02870
O245        O  0.06181733  0.56449115  0.97524462    -0.72160
O246        O  0.93581042  0.54447711  0.55536503    -0.72380
O247        O  0.06428593  0.55147357  0.55333262    -0.72240
O248        O  0.93443632  0.55580026  0.97749037    -0.72240
O249        O  0.94479517  0.45460574  0.96944131    -0.72200
O250        O  0.07330328  0.45014696  0.54591637    -0.72220
O251        O  0.94353006  0.44309239  0.54779512    -0.72160
O252        O  0.07159822  0.46308051  0.96803110    -0.72350
V253        V  0.99931354  0.55204317  0.51525447     1.35240
V254        V  0.00811582  0.45465921  0.50809203     1.35170
C255        C  0.08820030  0.51729755  0.95820325     0.77080
C256        C  0.91675231  0.49084819  0.56443163     0.77140
C257        C  0.09193724  0.50010884  0.56186136     0.77010
C258        C  0.91779349  0.50582862  0.96055352     0.76970
O259        O  0.54703643  0.06809620  0.55774129    -0.72160
O260        O  0.54704517  0.94278104  0.97725061    -0.72380
O261        O  0.54808089  0.06857887  0.97927381    -0.72240
O262        O  0.54593191  0.94139025  0.55623335    -0.72240
O263        O  0.44305793  0.95096778  0.56023413    -0.72200
O264        O  0.44510242  0.06667045  0.97738999    -0.72220
O265        O  0.44376160  0.94121256  0.98204068    -0.72160
O266        O  0.44391763  0.07714977  0.55528583    -0.72350
V267        V  0.54518921  0.00519252  0.51770062     1.35240
V268        V  0.44594748  0.00885692  0.51876624     1.35170
C269        C  0.49554810  0.09557948  0.56898642     0.77080
C270        C  0.49529358  0.92006879  0.96647022     0.77140
C271        C  0.49661294  0.08957444  0.96540780     0.77010
C272        C  0.49371943  0.92416336  0.57127596     0.76970
C273        C  0.44186008  0.78060180  0.62636807    -0.09540
C274        C  0.49606497  0.76336306  0.64836245     0.06660
C275        C  0.54660129  0.80694393  0.64775515    -0.03300
C276        C  0.54515135  0.85807173  0.62219038    -0.07750
C277        C  0.49184747  0.87210601  0.59968962     0.05780
C278        C  0.43840982  0.83439262  0.60391550    -0.02780
Br279      Br  0.35759395  0.85221568  0.58046782    -0.02470
H280        H  0.39904616  0.75405014  0.62688621     0.09690
H281        H  0.58548834  0.88859067  0.62087853     0.07710
Br282      Br  0.61773483  0.80584976  0.68198767    -0.02900
C283        C  0.82113184  0.49168088  0.65993878    -0.09540
C284        C  0.75715353  0.49184382  0.64757911     0.06660
C285        C  0.74802990  0.48697448  0.60620900    -0.03300
C286        C  0.80067656  0.48405568  0.57985140    -0.07750
C287        C  0.86318453  0.48537559  0.59306387     0.05780
C288        C  0.87290830  0.48843433  0.63343390    -0.02780
Br289      Br  0.95653687  0.48887964  0.65417678    -0.02470
H290        H  0.83279077  0.49485893  0.69046156     0.09690
H291        H  0.79264983  0.48261196  0.54861479     0.07710
Br292      Br  0.66590309  0.48802493  0.58230764    -0.02900
C293        C  0.58608894  0.54463978  0.66881053    -0.09540
C294        C  0.65160295  0.55488646  0.66571674     0.06660
C295        C  0.66317961  0.61545497  0.64863869    -0.03300
C296        C  0.61196997  0.66191474  0.64569720    -0.07750
C297        C  0.55132859  0.65298899  0.66431671     0.05780
C298        C  0.54393406  0.59278234  0.67890745    -0.02780
Br299      Br  0.47990099  0.57391529  0.71619240    -0.02470
H300        H  0.56607388  0.49954845  0.66899098     0.09690
H301        H  0.62121673  0.70478059  0.63056836     0.07710
Br302      Br  0.74345807  0.63760672  0.62522881    -0.02900
C303        C  0.25359873  0.48405892  0.60933480    -0.09540
C304        C  0.23928074  0.50150035  0.64886920     0.06660
C305        C  0.17299134  0.51247253  0.65888744    -0.03300
C306        C  0.12818552  0.51661045  0.62933146    -0.07750
C307        C  0.14331303  0.49874086  0.59079080     0.05780
C308        C  0.20608365  0.47834880  0.58144838    -0.02780
Br309      Br  0.22934322  0.44003688  0.53187265    -0.02470
H310        H  0.30203622  0.47184699  0.60019307     0.09690
H311        H  0.07950988  0.53004881  0.63700840     0.07710
Br312      Br  0.13205758  0.51269529  0.70996866    -0.02900
C313        C  0.38628593  0.56706172  0.63491922    -0.09540
C314        C  0.33570623  0.56886643  0.66342150     0.06660
C315        C  0.32156452  0.63034654  0.67667266    -0.03300
C316        C  0.37245882  0.67011564  0.68471057    -0.07750
C317        C  0.43083871  0.66451584  0.66290890     0.05780
C318        C  0.42971704  0.61719056  0.63214457    -0.02780
Br319      Br  0.48608747  0.61659604  0.58690185    -0.02470
H320        H  0.39357069  0.52665194  0.61561300     0.09690
H321        H  0.36242337  0.70786254  0.70488996     0.07710
Br322      Br  0.25611235  0.67191903  0.64741107    -0.02900
C323        C  0.48829540  0.25675687  0.61715251    -0.09540
C324        C  0.49961485  0.24322963  0.65691446     0.06660
C325        C  0.50627563  0.17793111  0.66666231    -0.03300
C326        C  0.50587168  0.13170799  0.63710207    -0.07750
C327        C  0.49567955  0.14673834  0.59827636     0.05780
C328        C  0.48578297  0.20965482  0.58835675    -0.02780
Br329      Br  0.47229401  0.23440200  0.53560266    -0.02470
H330        H  0.48283611  0.30495759  0.60801096     0.09690
H331        H  0.51227352  0.08273481  0.64459035     0.07710
Br332      Br  0.51399420  0.14110576  0.71749412    -0.02900
C333        C  0.45174997  0.41106227  0.66838213    -0.09540
C334        C  0.44129789  0.34735793  0.67620087     0.06660
C335        C  0.37463965  0.33350150  0.67220154    -0.03300
C336        C  0.32768480  0.38391914  0.66690526    -0.07750
C337        C  0.34404077  0.44862301  0.67189122     0.05420
C338        C  0.40681591  0.45506227  0.68245799    -0.02780
Br339      Br  0.40824932  0.45546715  0.73720444    -0.02470
H340        H  0.49652334  0.42819997  0.65815450     0.09690
H341        H  0.27878385  0.37242419  0.66162876     0.07710
Br342      Br  0.34484748  0.24935111  0.66935018    -0.02900
C343        C  0.56911784  0.38592674  0.70940994    -0.09540
C344        C  0.56413317  0.34001719  0.68031583     0.06660
C345        C  0.61693645  0.33711209  0.65236605    -0.03300
C346        C  0.66436562  0.38450718  0.65270157    -0.07750
C347        C  0.66216553  0.43519866  0.68046406     0.05780
C348        C  0.61668516  0.42827468  0.71087889    -0.02780
Br349      Br  0.59865648  0.48830809  0.74906373    -0.02470
H350        H  0.53125418  0.39128169  0.73099015     0.09690
H351        H  0.70222857  0.38117733  0.63078574     0.07710
Br352      Br  0.63403228  0.27030745  0.61501254    -0.02900
C353        C  0.45946342  0.75733700  0.78485647    -0.09540
C354        C  0.51343660  0.73258292  0.80464495     0.06660
C355        C  0.56674424  0.71910071  0.77913548    -0.03300
C356        C  0.55775173  0.70626618  0.73925214    -0.07750
C357        C  0.50051703  0.72119110  0.71937189     0.05780
C358        C  0.45591568  0.75759277  0.74314038    -0.02780
Br359      Br  0.39901023  0.81967832  0.72186445    -0.02470
H360        H  0.42017359  0.77804907  0.80215098     0.09690
H361        H  0.59997344  0.69004651  0.72324402     0.07710
Br362      Br  0.65256773  0.74178347  0.78880967    -0.02900
C363        C  0.47252322  0.76476480  0.91553775    -0.09540
C364        C  0.49651571  0.77373450  0.87706185     0.06660
C365        C  0.51941528  0.83527957  0.86899618    -0.03300
C366        C  0.51849593  0.88176166  0.89866929    -0.07750
C367        C  0.49493961  0.87022756  0.93630867     0.05780
C368        C  0.47126200  0.81134561  0.94453186    -0.02780
Br369      Br  0.44114626  0.78986362  0.99585197    -0.02470
H370        H  0.45385751  0.72094114  0.92393615     0.09690
H371        H  0.53638421  0.92780481  0.89231985     0.07710
Br372      Br  0.55407166  0.86497360  0.82035518    -0.02900
C373        C  0.71636436  0.56576211  0.78651491    -0.09540
C374        C  0.72102110  0.51075271  0.80962178     0.06660
C375        C  0.74131408  0.45586545  0.78676576    -0.03300
C376        C  0.74565327  0.45633394  0.74489147    -0.07750
C377        C  0.72809952  0.50949142  0.72229260     0.05780
C378        C  0.72325405  0.56607765  0.74494548    -0.02780
Br379      Br  0.73968397  0.64588763  0.72328469    -0.02470
H380        H  0.70689622  0.61071774  0.79965102     0.09690
H381        H  0.75612268  0.41217622  0.72962926     0.07710
Br382      Br  0.75974875  0.37516712  0.80880454    -0.02900
C383        C  0.81854405  0.48957134  0.86978744    -0.09540
C384        C  0.75734403  0.50946920  0.88396725     0.06660
C385        C  0.75179208  0.52618682  0.92492483    -0.03300
C386        C  0.80589600  0.52949028  0.94760117    -0.07750
C387        C  0.86483496  0.50713095  0.93326778     0.05780
C388        C  0.86992026  0.48291254  0.89480897    -0.02780
Br389      Br  0.94264222  0.43425619  0.87608160    -0.02470
H390        H  0.82686253  0.47516595  0.83973481     0.09690
H391        H  0.80092609  0.54438518  0.97809458     0.07710
Br392      Br  0.67460186  0.53593056  0.95605426    -0.02900
C393        C  0.59454164  0.56521475  0.88504152    -0.09540
C394        C  0.65599868  0.57148003  0.86777718     0.06660
C395        C  0.67455300  0.63573987  0.86655577    -0.03300
C396        C  0.62711654  0.68540376  0.86702386    -0.07750
C397        C  0.56176217  0.67244401  0.86913001     0.05780
C398        C  0.55086101  0.61553426  0.88931666    -0.02780
Br399      Br  0.48514562  0.60395823  0.92816380    -0.02470
H400        H  0.58047203  0.52156460  0.89762327     0.09690
H401        H  0.64120708  0.73361326  0.86533420     0.07710
Br402      Br  0.76226571  0.65906136  0.86451954    -0.02900
C403        C  0.27324052  0.56222585  0.78736049    -0.09540
C404        C  0.28837658  0.50512366  0.80614165     0.06660
C405        C  0.27760543  0.45034015  0.78170776    -0.03300
C406        C  0.26423673  0.45692032  0.74163780    -0.07750
C407        C  0.27357604  0.51328469  0.72180193     0.05780
C408        C  0.26616922  0.56748319  0.74684518    -0.02780
Br409      Br  0.21368006  0.64029859  0.73632214    -0.02470
H410        H  0.26517945  0.60447742  0.80495436     0.09690
H411        H  0.25499733  0.41537755  0.72451370     0.07710
Br412      Br  0.28863133  0.36236228  0.79073145    -0.02900
C413        C  0.18793657  0.52323874  0.86477830    -0.09540
C414        C  0.25061297  0.52079589  0.87937320     0.06660
C415        C  0.25624442  0.52569084  0.92104121    -0.03300
C416        C  0.20215483  0.52690717  0.94545031    -0.07750
C417        C  0.14160023  0.52464585  0.93040748     0.05780
C418        C  0.13437884  0.52746661  0.88987309    -0.02780
Br419      Br  0.05355734  0.54473604  0.86759699    -0.02470
H420        H  0.17906454  0.52306059  0.83380581     0.09690
H421        H  0.20721446  0.53105080  0.97678582     0.07710
Br422      Br  0.33320106  0.53595286  0.94903064    -0.02900
C423        C  0.40643145  0.56827335  0.82762633    -0.09540
C424        C  0.35135864  0.57359539  0.85123899     0.06660
C425        C  0.33828451  0.63528735  0.86800216    -0.03300
C426        C  0.38521111  0.68233162  0.86610365    -0.07750
C427        C  0.44625491  0.67007091  0.84865428     0.05780
C428        C  0.45277014  0.61288839  0.82751802    -0.02780
Br429      Br  0.52862829  0.58785970  0.80172779    -0.02470
H430        H  0.41516232  0.52611686  0.81042629     0.09690
H431        H  0.37306246  0.72848510  0.87803621     0.07710
Br432      Br  0.25657823  0.66523788  0.88799928    -0.02900
C433        C  0.55651348  0.27879737  0.79299649    -0.09540
C434        C  0.50011938  0.28195499  0.81673124     0.06660
C435        C  0.44436069  0.26844458  0.79557237    -0.03300
C436        C  0.44305661  0.27620271  0.75415026    -0.07750
C437        C  0.49959944  0.28023626  0.73081427     0.05780
C438        C  0.55688356  0.27087129  0.75221543    -0.02780
Br439      Br  0.63929178  0.24768250  0.72915157    -0.02470
H440        H  0.60235222  0.28541558  0.80548554     0.09690
H441        H  0.39795395  0.27291310  0.74028348     0.07710
Br442      Br  0.38498863  0.20939593  0.81534156    -0.02900
C443        C  0.45375627  0.24148620  0.91634914    -0.09540
C444        C  0.50541125  0.25072465  0.88960692     0.06660
C445        C  0.55465194  0.20275177  0.88886714    -0.03300
C446        C  0.55049242  0.15102016  0.91363589    -0.07750
C447        C  0.49672565  0.14190920  0.93758162     0.05780
C448        C  0.44658769  0.18663966  0.93719710    -0.02780
Br449      Br  0.36617446  0.17774047  0.96466307    -0.02470
H450        H  0.41652723  0.27604158  0.92199304     0.09690
H451        H  0.58955044  0.11675067  0.91374551     0.07710
Br452      Br  0.63194321  0.20151970  0.85782306    -0.02900
C453        C  0.37764768  0.34266589  0.86803591    -0.09540
C454        C  0.44302581  0.35419331  0.87371306     0.06660
C455        C  0.45121506  0.41303461  0.89271417    -0.03300
C456        C  0.41122375  0.46368493  0.88322765    -0.07750
C457        C  0.35127895  0.45495923  0.86610604     0.05780
C458        C  0.33111055  0.39236400  0.86972654    -0.02780
Br459      Br  0.24430367  0.37163855  0.88244847    -0.02470
H460        H  0.36106573  0.29578767  0.86706422     0.09690
H461        H  0.42611988  0.50926580  0.89188674     0.07710
Br462      Br  0.50616845  0.42427749  0.93628177    -0.02900
C463        C  0.61566686  0.34849343  0.88735316    -0.09540
C464        C  0.56236398  0.35220533  0.86252318     0.06660
C465        C  0.56145737  0.40402497  0.83767551    -0.03300
C466        C  0.60617323  0.44943199  0.83850727    -0.07750
C467        C  0.65841244  0.44915480  0.86200646     0.05780
C468        C  0.66401523  0.39507828  0.88686704    -0.02780
Br469      Br  0.73471319  0.37675992  0.91960125    -0.02470
H470        H  0.61927584  0.31086377  0.90803432     0.09690
H471        H  0.59712415  0.49055118  0.82273302     0.07710
Br472      Br  0.49390479  0.42303957  0.80499702    -0.02900
loop_ 
_geom_bond_atom_site_label_1 
_geom_bond_atom_site_label_2 
_geom_bond_distance 
_geom_bond_site_symmetry_2 
_ccdc_geom_bond_type 
C1          C198   1.614       .  S
C1          C208   1.569       .  S
C1          C218   1.614       .  S
C1          C228   1.594       .  S
C2          C168   1.612       .  S
C2          C178   1.552       .  S
C2          C188   1.595       .  S
C2          C221   1.592       .  S
C3          C138   1.641       .  S
C3          C148   1.554       .  S
C3          C158   1.616       .  S
C3          C231   1.598       .  S
C4          C118   1.606       .  S
C4          C128   1.564       .  S
C4          C161   1.613       .  S
C4          C191   1.589       .  S
C5           C88   1.553       .  S
C5           C98   1.622       .  S
C5          C108   1.604       .  S
C5          C201   1.607       .  S
C6           C68   1.562       .  S
C6           C78   1.608       .  S
C6          C101   1.609       .  S
C6          C171   1.599       .  S
C7           C48   1.564       .  S
C7           C58   1.628       .  S
C7          C111   1.610       .  S
C7          C141   1.630       .  S
C8           C38   1.571       .  S
C8           C61   1.593       .  S
C8           C81   1.628       .  S
C8          C121   1.617       .  S
O9           C19   1.261       .  A
O9          V253   1.899   1_455  S
O10          C20   1.263       .  A
O10          V17   1.900       .  S
O11          C21   1.267       .  A
O11          V17   1.909   1_455  S
O12          C22   1.266       .  A
O12         V253   1.901       .  S
O13          C22   1.261       .  A
O13         V254   1.897   1_655  S
O14          C21   1.264       .  A
O14          V18   1.908       .  S
O15          C20   1.268       .  A
O15          V18   1.918   1_655  S
O16          C19   1.265       .  A
O16         V254   1.901       .  S
V17         O245   1.899   1_654  S
V17         O248   1.901   1_554  S
V17          V18   2.089   1_655  T
V18         O249   1.897   1_454  S
V18         O252   1.901   1_554  S
C19         C181   1.465       .  S
C20          C51   1.481       .  S
C21          C71   1.482       .  S
C22         C151   1.469       .  S
O23          C33   1.264       .  A
O23          V31   1.900       .  S
O24          C34   1.264       .  A
O24         V267   1.900   1_565  S
O25          C35   1.265       .  A
O25         V267   1.900       .  S
O26          C36   1.267       .  A
O26          V31   1.908   1_565  S
O27          C36   1.263       .  A
O27          V32   1.895   1_565  S
O28          C35   1.262       .  A
O28         V268   1.890       .  S
O29          C34   1.263       .  A
O29         V268   1.897   1_565  S
O30          C33   1.263       .  A
O30          V32   1.899       .  S
V31         O260   1.900   1_544  S
V31         O261   1.900   1_554  S
V31          V32   2.085       .  T
V32         O264   1.890   1_554  S
V32         O265   1.897   1_544  S
C33          C91   1.467       .  S
C34         C131   1.467       .  S
C35         C211   1.477       .  S
C36          C41   1.487       .  S
C37          C38   1.423       .  A
C37          C42   1.391       .  A
C37          H44   1.077       .  S
C38          C39   1.431       .  A
C39          C40   1.408       .  A
C39         Br46   1.920       .  S
C40          C41   1.402       .  A
C40          H45   1.084       .  S
C41          C42   1.406       .  A
C42         Br43   1.927       .  S
C47          C48   1.419       .  A
C47          C52   1.397       .  A
C47          H54   1.078       .  S
C48          C49   1.432       .  A
C49          C50   1.408       .  A
C49         Br56   1.928       .  S
C50          C51   1.401       .  A
C50          H55   1.084       .  S
C51          C52   1.399       .  A
C52         Br53   1.912       .  S
C57          C58   1.402       .  A
C57          C62   1.371       .  A
C57          H64   1.060       .  S
C58          C59   1.450       .  A
C59          C60   1.449       .  A
C59         Br66   1.923       .  S
C60          C61   1.429       .  A
C60          H65   1.077       .  S
C61          C62   1.396       .  A
C62         Br63   1.886       .  S
C67          C68   1.417       .  A
C67          C72   1.403       .  A
C67          H74   1.081       .  S
C68          C69   1.438       .  A
C69          C70   1.399       .  A
C69         Br76   1.925       .  S
C70          C71   1.390       .  A
C70          H75   1.079       .  S
C71          C72   1.405       .  A
C72         Br73   1.913       .  S
C77          C78   1.422       .  A
C77          C82   1.428       .  A
C77          H84   1.081       .  S
C78          C79   1.401       .  A
C79          C80   1.413       .  A
C79         Br86   1.925       .  S
C80          C81   1.420       .  A
C80          H85   1.063       .  S
C81          C82   1.445       .  A
C82         Br83   1.923       .  S
C87          C88   1.417       .  A
C87          C92   1.396       .  A
C87          H94   1.083       .  S
C88          C89   1.440       .  A
C89          C90   1.399       .  A
C89         Br96   1.925       .  S
C90          C91   1.389       .  A
C90          H95   1.085       .  S
C91          C92   1.400       .  A
C92         Br93   1.911       .  S
C97          C98   1.411       .  A
C97         C102   1.384       .  A
C97         H104   1.072       .  S
C98          C99   1.449       .  A
C99         C100   1.455       .  A
C99        Br106   1.918       .  S
C100        C101   1.439       .  A
C100        H105   1.082       .  S
C101        C102   1.387       .  A
C102       Br103   1.870       .  S
C107        C108   1.390       .  A
C107        C112   1.367       .  A
C107        H114   1.073       .  S
C108        C109   1.445       .  A
C109        C110   1.439       .  A
C109       Br116   1.916       .  S
C110        C111   1.424       .  A
C110        H115   1.079       .  S
C111        C112   1.406       .  A
C112       Br113   1.836       .  S
C117        C118   1.428       .  A
C117        C122   1.428       .  A
C117        H124   1.083       .  S
C118        C119   1.422       .  A
C119        C120   1.403       .  A
C119       Br126   1.916       .  S
C120        C121   1.427       .  A
C120        H125   1.076       .  S
C121        C122   1.428       .  A
C122       Br123   1.923       .  S
C127        C128   1.413       .  A
C127        C132   1.389       .  A
C127        H134   1.064       .  S
C128        C129   1.439       .  A
C129        C130   1.404       .  A
C129       Br136   1.921       .  S
C130        C131   1.394       .  A
C130        H135   1.084       .  S
C131        C132   1.394       .  A
C132       Br133   1.915       .  S
C137        C138   1.427       .  A
C137        C142   1.423       .  A
C137        H144   1.063       .  S
C138        C139   1.444       .  A
C139        C140   1.430       .  A
C139       Br146   1.923       .  S
C140        C141   1.427       .  A
C140        H145   1.083       .  S
C141        C142   1.422       .  A
C142       Br143   1.904       .  S
C147        C148   1.414       .  A
C147        C152   1.399       .  A
C147        H154   1.075       .  S
C148        C149   1.438       .  A
C149        C150   1.394       .  A
C149       Br156   1.922       .  S
C150        C151   1.389       .  A
C150        H155   1.085       .  S
C151        C152   1.403       .  A
C152       Br153   1.913       .  S
C157        C158   1.417       .  A
C157        C162   1.396       .  A
C157        H164   1.077       .  S
C158        C159   1.436       .  A
C159        C160   1.433       .  A
C159       Br166   1.923       .  S
C160        C161   1.409       .  A
C160        H165   1.080       .  S
C161        C162   1.427       .  A
C162       Br163   1.915       .  S
C167        C168   1.417       .  A
C167        C172   1.401       .  A
C167        H174   1.081       .  S
C168        C169   1.450       .  A
C169        C170   1.412       .  A
C169       Br176   1.914       .  S
C170        C171   1.405       .  A
C170        H175   1.078       .  S
C171        C172   1.428       .  A
C172       Br173   1.923       .  S
C177        C178   1.420       .  A
C177        C182   1.397       .  A
C177        H184   1.078       .  S
C178        C179   1.433       .  A
C179        C180   1.392       .  A
C179       Br186   1.915       .  S
C180        C181   1.386       .  A
C180        H185   1.080       .  S
C181        C182   1.398       .  A
C182       Br183   1.908       .  S
C187        C188   1.395       .  A
C187        C192   1.380       .  A
C187        H194   1.074       .  S
C188        C189   1.442       .  A
C189        C190   1.428       .  A
C189       Br196   1.921       .  S
C190        C191   1.417       .  A
C190        H195   1.080       .  S
C191        C192   1.408       .  A
C192       Br193   1.862       .  S
C197        C198   1.418       .  A
C197        C202   1.399       .  A
C197        H204   1.075       .  S
C198        C199   1.426       .  A
C199        C200   1.427       .  A
C199       Br206   1.916       .  S
C200        C201   1.420       .  A
C200        H205   1.074       .  S
C201        C202   1.435       .  A
C202       Br203   1.933       .  S
C207        C208   1.421       .  A
C207        C212   1.389       .  A
C207        H214   1.071       .  S
C208        C209   1.434       .  A
C209        C210   1.404       .  A
C209       Br216   1.917       .  S
C210        C211   1.398       .  A
C210        H215   1.084       .  S
C211        C212   1.402       .  A
C212       Br213   1.928       .  S
C217        C218   1.420       .  A
C217        C222   1.421       .  A
C217        H224   1.068       .  S
C218        C219   1.419       .  A
C219        C220   1.397       .  A
C219       Br226   1.922       .  S
C220        C221   1.418       .  A
C220        H225   1.068       .  S
C221        C222   1.418       .  A
C222       Br223   1.930       .  S
C227        C228   1.423       .  A
C227        C232   1.441       .  A
C227        H234   1.080       .  S
C228        C229   1.404       .  A
C229        C230   1.369       .  A
C229       Br236   1.867       .  S
C230        C231   1.376       .  A
C230        H235   1.052       .  S
C231        C232   1.447       .  A
C232       Br233   1.917       .  S
C237        C434   1.614       .  S
C237        C444   1.569       .  S
C237        C454   1.614       .  S
C237        C464   1.594       .  S
C238        C404   1.612       .  S
C238        C414   1.552       .  S
C238        C424   1.595       .  S
C238        C457   1.592       .  S
C239        C374   1.641       .  S
C239        C384   1.554       .  S
C239        C394   1.616       .  S
C239        C467   1.598       .  S
C240        C354   1.606       .  S
C240        C364   1.564       .  S
C240        C397   1.613       .  S
C240        C427   1.589       .  S
C241        C324   1.553       .  S
C241        C334   1.622       .  S
C241        C344   1.604       .  S
C241        C437   1.607       .  S
C242        C304   1.562       .  S
C242        C314   1.608       .  S
C242        C337   1.609       .  S
C242        C407   1.599       .  S
C243        C284   1.564       .  S
C243        C294   1.628       .  S
C243        C347   1.610       .  S
C243        C377   1.630       .  S
C244        C274   1.571       .  S
C244        C297   1.593       .  S
C244        C317   1.628       .  S
C244        C357   1.617       .  S
O245        C255   1.261       .  A
O246        C256   1.263       .  A
O246        V253   1.900       .  S
O247        C257   1.267       .  A
O247        V253   1.909   1_455  S
O248        C258   1.266       .  A
O249        C258   1.261       .  A
O250        C257   1.264       .  A
O250        V254   1.908       .  S
O251        C256   1.268       .  A
O251        V254   1.918   1_655  S
O252        C255   1.265       .  A
V253        V254   2.089   1_655  T
C255        C417   1.465       .  S
C256        C287   1.481       .  S
C257        C307   1.482       .  S
C258        C387   1.469       .  S
O259        C269   1.264       .  A
O259        V267   1.900       .  S
O260        C270   1.264       .  A
O261        C271   1.265       .  A
O262        C272   1.267       .  A
O262        V267   1.908   1_565  S
O263        C272   1.263       .  A
O263        V268   1.895   1_565  S
O264        C271   1.262       .  A
O265        C270   1.263       .  A
O266        C269   1.263       .  A
O266        V268   1.899       .  S
V267        V268   2.085       .  T
C269        C327   1.467       .  S
C270        C367   1.467       .  S
C271        C447   1.477       .  S
C272        C277   1.487       .  S
C273        C274   1.423       .  A
C273        C278   1.391       .  A
C273        H280   1.077       .  S
C274        C275   1.431       .  A
C275        C276   1.408       .  A
C275       Br282   1.920       .  S
C276        C277   1.402       .  A
C276        H281   1.084       .  S
C277        C278   1.406       .  A
C278       Br279   1.927       .  S
C283        C284   1.419       .  A
C283        C288   1.397       .  A
C283        H290   1.078       .  S
C284        C285   1.432       .  A
C285        C286   1.408       .  A
C285       Br292   1.928       .  S
C286        C287   1.401       .  A
C286        H291   1.084       .  S
C287        C288   1.399       .  A
C288       Br289   1.912       .  S
C293        C294   1.402       .  A
C293        C298   1.371       .  A
C293        H300   1.060       .  S
C294        C295   1.450       .  A
C295        C296   1.449       .  A
C295       Br302   1.923       .  S
C296        C297   1.429       .  A
C296        H301   1.077       .  S
C297        C298   1.396       .  A
C298       Br299   1.886       .  S
C303        C304   1.417       .  A
C303        C308   1.403       .  A
C303        H310   1.081       .  S
C304        C305   1.438       .  A
C305        C306   1.399       .  A
C305       Br312   1.925       .  S
C306        C307   1.390       .  A
C306        H311   1.079       .  S
C307        C308   1.405       .  A
C308       Br309   1.913       .  S
C313        C314   1.422       .  A
C313        C318   1.428       .  A
C313        H320   1.081       .  S
C314        C315   1.401       .  A
C315        C316   1.413       .  A
C315       Br322   1.925       .  S
C316        C317   1.420       .  A
C316        H321   1.063       .  S
C317        C318   1.445       .  A
C318       Br319   1.923       .  S
C323        C324   1.417       .  A
C323        C328   1.396       .  A
C323        H330   1.083       .  S
C324        C325   1.440       .  A
C325        C326   1.399       .  A
C325       Br332   1.925       .  S
C326        C327   1.389       .  A
C326        H331   1.085       .  S
C327        C328   1.400       .  A
C328       Br329   1.911       .  S
C333        C334   1.411       .  A
C333        C338   1.384       .  A
C333        H340   1.072       .  S
C334        C335   1.449       .  A
C335        C336   1.455       .  A
C335       Br342   1.918       .  S
C336        C337   1.439       .  A
C336        H341   1.082       .  S
C337        C338   1.387       .  A
C338       Br339   1.870       .  S
C343        C344   1.390       .  A
C343        C348   1.367       .  A
C343        H350   1.073       .  S
C344        C345   1.445       .  A
C345        C346   1.439       .  A
C345       Br352   1.916       .  S
C346        C347   1.424       .  A
C346        H351   1.079       .  S
C347        C348   1.406       .  A
C348       Br349   1.836       .  S
C353        C354   1.428       .  A
C353        C358   1.428       .  A
C353        H360   1.083       .  S
C354        C355   1.422       .  A
C355        C356   1.403       .  A
C355       Br362   1.916       .  S
C356        C357   1.427       .  A
C356        H361   1.076       .  S
C357        C358   1.428       .  A
C358       Br359   1.923       .  S
C363        C364   1.413       .  A
C363        C368   1.389       .  A
C363        H370   1.064       .  S
C364        C365   1.439       .  A
C365        C366   1.404       .  A
C365       Br372   1.921       .  S
C366        C367   1.394       .  A
C366        H371   1.084       .  S
C367        C368   1.394       .  A
C368       Br369   1.915       .  S
C373        C374   1.427       .  A
C373        C378   1.423       .  A
C373        H380   1.063       .  S
C374        C375   1.444       .  A
C375        C376   1.430       .  A
C375       Br382   1.923       .  S
C376        C377   1.427       .  A
C376        H381   1.083       .  S
C377        C378   1.422       .  A
C378       Br379   1.904       .  S
C383        C384   1.414       .  A
C383        C388   1.399       .  A
C383        H390   1.075       .  S
C384        C385   1.438       .  A
C385        C386   1.394       .  A
C385       Br392   1.922       .  S
C386        C387   1.389       .  A
C386        H391   1.085       .  S
C387        C388   1.403       .  A
C388       Br389   1.913       .  S
C393        C394   1.417       .  A
C393        C398   1.396       .  A
C393        H400   1.077       .  S
C394        C395   1.436       .  A
C395        C396   1.433       .  A
C395       Br402   1.923       .  S
C396        C397   1.409       .  A
C396        H401   1.080       .  S
C397        C398   1.427       .  A
C398       Br399   1.915       .  S
C403        C404   1.417       .  A
C403        C408   1.401       .  A
C403        H410   1.081       .  S
C404        C405   1.450       .  A
C405        C406   1.412       .  A
C405       Br412   1.914       .  S
C406        C407   1.405       .  A
C406        H411   1.078       .  S
C407        C408   1.428       .  A
C408       Br409   1.923       .  S
C413        C414   1.420       .  A
C413        C418   1.397       .  A
C413        H420   1.078       .  S
C414        C415   1.433       .  A
C415        C416   1.392       .  A
C415       Br422   1.915       .  S
C416        C417   1.386       .  A
C416        H421   1.080       .  S
C417        C418   1.398       .  A
C418       Br419   1.908       .  S
C423        C424   1.395       .  A
C423        C428   1.380       .  A
C423        H430   1.074       .  S
C424        C425   1.442       .  A
C425        C426   1.428       .  A
C425       Br432   1.921       .  S
C426        C427   1.417       .  A
C426        H431   1.080       .  S
C427        C428   1.408       .  A
C428       Br429   1.862       .  S
C433        C434   1.418       .  A
C433        C438   1.399       .  A
C433        H440   1.075       .  S
C434        C435   1.426       .  A
C435        C436   1.427       .  A
C435       Br442   1.916       .  S
C436        C437   1.420       .  A
C436        H441   1.074       .  S
C437        C438   1.435       .  A
C438       Br439   1.933       .  S
C443        C444   1.421       .  A
C443        C448   1.389       .  A
C443        H450   1.071       .  S
C444        C445   1.434       .  A
C445        C446   1.404       .  A
C445       Br452   1.917       .  S
C446        C447   1.398       .  A
C446        H451   1.084       .  S
C447        C448   1.402       .  A
C448       Br449   1.928       .  S
C453        C454   1.420       .  A
C453        C458   1.421       .  A
C453        H460   1.068       .  S
C454        C455   1.419       .  A
C455        C456   1.397       .  A
C455       Br462   1.922       .  S
C456        C457   1.418       .  A
C456        H461   1.068       .  S
C457        C458   1.418       .  A
C458       Br459   1.930       .  S
C463        C464   1.423       .  A
C463        C468   1.441       .  A
C463        H470   1.080       .  S
C464        C465   1.404       .  A
C465        C466   1.369       .  A
C465       Br472   1.867       .  S
C466        C467   1.376       .  A
C466        H471   1.052       .  S
C467        C468   1.447       .  A
C468       Br469   1.917       .  S
