geometry optimzed in LAMMPS
_audit_creation_date              2020-11-30 
_audit_creation_method            'lammps2cif' 
_symmetry_space_group_name_H-M    'P1' 
_symmetry_Int_Tables_number       1 
_symmetry_cell_setting            triclinic 
loop_ 
_symmetry_equiv_pos_as_xyz 
  x,y,z 
_cell_length_a                    33.24509128 
_cell_length_b                    41.959906917643295 
_cell_length_c                    39.962310427222825 
_cell_angle_alpha                 90.1544383898812 
_cell_angle_beta                  90.1105051221046 
_cell_angle_gamma                 90.02154895548358 
loop_ 
_atom_site_label 
_atom_site_type_symbol 
_atom_site_fract_x 
_atom_site_fract_y 
_atom_site_fract_z 
_atom_site_charge 
C1          C  0.17788766  0.81463234  0.37051737     0.80400
N2          N  0.16353822  0.84147019  0.35584950    -0.77900
C3          C  0.13444284  0.85907756  0.37085662     0.82800
N4          N  0.12017110  0.84979485  0.40108359    -0.77900
C5          C  0.13434027  0.82309525  0.41622847     0.82900
N6          N  0.16335462  0.80568356  0.40082040    -0.79600
C7          C  0.69842641  0.84325363  0.05658428     0.80400
N8          N  0.70989751  0.87139709  0.07070475    -0.77900
C9          C  0.73486055  0.89157317  0.05422141     0.82800
N10         N  0.74816534  0.88335718  0.02336447    -0.77900
C11         C  0.73693080  0.85563038  0.00860842     0.82900
N12         N  0.71231511  0.83538341  0.02554312    -0.79600
O13         O  0.93150868  0.80993751  0.80150096    -0.78300
C14         C  0.02417408  0.74653122  0.76459198     0.82700
O15         O  0.01421830  0.87561500  0.73169738    -0.79400
O16         O  0.01920516  0.77860464  0.66189273    -0.80900
O17         O  0.87921873  0.76839934  0.69825694    -0.80700
O18         O  0.87666153  0.81105559  0.76979533    -0.79300
Zn19       Zn  0.97886097  0.80961031  0.76996316     1.55700
O20         O  0.93405876  0.74230412  0.68163746    -0.80700
Cd21       Cd  0.90117715  0.80841759  0.72225179     1.59700
Cd22       Cd  0.98332644  0.84546853  0.69966610     1.59600
O23         O  0.88090881  0.84702728  0.69523729    -0.80700
O24         O  0.96129171  0.80793977  0.72384071    -1.91200
Cd25       Cd  0.98118528  0.76840876  0.70126862     1.59900
O26         O  0.93697889  0.87126512  0.67868236    -0.80700
O27         O  0.01306201  0.74087590  0.73462640    -0.79300
C28         C  0.02197975  0.87363646  0.76284798     0.83200
C29         C  0.89337636  0.81122162  0.79853654     0.82900
O30         O  0.01353745  0.77173449  0.78006134    -0.78300
C31         C  0.89594985  0.74534891  0.68283703     0.83700
O32         O  0.01063245  0.84960927  0.77983990    -0.78400
C33         C  0.89871709  0.86923425  0.67943223     0.83800
C34         C  0.03189347  0.80463038  0.64946794     0.84100
O35         O  0.02145686  0.83153968  0.66155653    -0.80800
C36         C  0.20845897  0.59414523  0.88400668     0.80400
N37         N  0.22191078  0.60148388  0.91531426    -0.77900
C38         C  0.25229871  0.58440506  0.92930739     0.82800
N39         N  0.26919507  0.56020049  0.91172422    -0.77900
C40         C  0.25616070  0.55262458  0.88060887     0.82900
N41         N  0.22574599  0.56967528  0.86688148    -0.79600
C42         C  0.71642104  0.59081261  0.56170823     0.80400
N43         N  0.70019176  0.59715486  0.53119234    -0.77900
C44         C  0.67254858  0.57724026  0.51736941     0.82800
N45         N  0.66126925  0.55097359  0.53459337    -0.77900
C46         C  0.67710296  0.54415304  0.56504058     0.82900
N47         N  0.70474429  0.56425344  0.57853522    -0.79600
O48         O  0.48592157  0.62286031  0.30366159    -0.78300
C49         C  0.39216010  0.68191018  0.26036000     0.82700
O50         O  0.41294331  0.55276517  0.23149857    -0.79400
O51         O  0.40838577  0.64747083  0.15751950    -0.80900
O52         O  0.54465729  0.66347540  0.20185853    -0.80700
O53         O  0.54302101  0.62292254  0.27485358    -0.79300
Zn54       Zn  0.44103836  0.62085343  0.26988595     1.55700
O55         O  0.48980832  0.68895039  0.18428709    -0.80700
Cd56       Cd  0.52277682  0.62308400  0.22571448     1.59700
Cd57       Cd  0.44442191  0.58326911  0.20102570     1.59600
O58         O  0.54668673  0.58335782  0.20149251    -0.80700
O59         O  0.46248602  0.62229820  0.22471896    -1.91200
Cd60       Cd  0.44199026  0.66049215  0.19968612     1.59900
O61         O  0.49232902  0.55771081  0.18323662    -0.80700
O62         O  0.40425338  0.68663891  0.23050743    -0.79300
C63         C  0.40231616  0.55491272  0.26195659     0.83200
C64         C  0.52421614  0.62281277  0.30266428     0.82900
O65         O  0.40401021  0.65803579  0.27741519    -0.78300
C66         C  0.52804764  0.68679536  0.18675201     0.83700
O67         O  0.41048050  0.57972759  0.27919591    -0.78400
C68         C  0.53036149  0.56016139  0.18583941     0.83800
C69         C  0.39766947  0.62013240  0.14658605     0.84100
O70         O  0.40860072  0.59466749  0.16118382    -0.80800
C71         C  0.21382805  0.33015983  0.38095929     0.80400
N72         N  0.23102814  0.35499824  0.36427673    -0.77900
C73         C  0.26283738  0.37102739  0.37765489     0.82800
N74         N  0.27718897  0.36178788  0.40779797    -0.77900
C75         C  0.26072681  0.33724327  0.42491042     0.82900
N76         N  0.22895304  0.32149129  0.41132348    -0.79600
C77         C  0.72287128  0.34241120  0.05874871     0.80400
N78         N  0.70906762  0.36815465  0.07602363    -0.77900
C79         C  0.68078916  0.38762359  0.06253554     0.82800
N80         N  0.66641289  0.38091856  0.03152389    -0.77900
C81         C  0.67963554  0.35540348  0.01381725     0.82900
N82         N  0.70771963  0.33597555  0.02777978    -0.79600
O83         O  0.41182169  0.26752134  0.77957628    -0.78300
C84         C  0.52908859  0.30953711  0.79983638     0.82700
O85         O  0.40706006  0.37409523  0.73356895    -0.79400
O86         O  0.54291492  0.34837484  0.69922132    -0.80900
O87         O  0.49054578  0.24216783  0.68169705    -0.80700
O88         O  0.40865522  0.24057546  0.73148190    -0.79300
Zn89       Zn  0.44353229  0.30766527  0.77057343     1.55700
O90         O  0.54456539  0.26971639  0.69745633    -0.80700
Cd91       Cd  0.44277231  0.26877294  0.69995075     1.59700
Cd92       Cd  0.44041207  0.34613389  0.70131764     1.59600
O93         O  0.40824313  0.28090650  0.65875867    -0.80700
O94         O  0.46190863  0.30765553  0.72444835    -1.91200
Cd95       Cd  0.52209099  0.30835486  0.72347175     1.59900
O96         O  0.40458910  0.33388811  0.66086831    -0.80700
O97         O  0.54605617  0.30877603  0.77129160    -0.79300
C98         C  0.39736523  0.37079535  0.76420268     0.83200
C99         C  0.40010463  0.24353727  0.76243855     0.82900
O100        O  0.49085156  0.30909181  0.80246183    -0.78300
C101        C  0.52857824  0.24613589  0.68231016     0.83700
O102        O  0.40865631  0.34645545  0.78084086    -0.78400
C103        C  0.39593970  0.30736206  0.64697920     0.83800
C104        C  0.52536284  0.37138718  0.68447973     0.84100
O105        O  0.48714727  0.37349076  0.68335009    -0.80800
C106        C  0.20215361  0.10155609  0.88120254     0.80400
N107        N  0.18939679  0.11030516  0.91223540    -0.78700
C108        C  0.15928480  0.09414307  0.92759291     0.82800
N109        N  0.14213758  0.06886318  0.91184494    -0.77900
C110        C  0.15467033  0.05953258  0.88106289     0.82900
N111        N  0.18480823  0.07596302  0.86589963    -0.79600
C112        C  0.70739920  0.08993107  0.55982218     0.80400
N113        N  0.71817597  0.09604571  0.52767222    -0.77900
C114        C  0.74352378  0.07625384  0.51103744     0.82800
N115        N  0.75835382  0.05026767  0.52701338    -0.77900
C116        C  0.74829030  0.04384594  0.55922120     0.82900
N117        N  0.72282846  0.06390571  0.57546963    -0.79600
O118        O  0.01071127  0.15357142  0.28069775    -0.78300
C119        C  0.89071233  0.11529416  0.29666323     0.82700
O120        O  0.01129528  0.05090210  0.22715433    -0.79400
O121        O  0.87605973  0.08142406  0.19415806    -0.80900
O122        O  0.93325963  0.18627130  0.18236015    -0.80700
O123        O  0.01081433  0.18550926  0.23629281    -0.79300
Zn124      Zn  0.97634891  0.11591994  0.26810645     1.55700
O125        O  0.87763614  0.16026171  0.19664496    -0.80700
Cd126      Cd  0.97944436  0.15872391  0.20138145     1.59700
Cd127      Cd  0.97853829  0.08087931  0.19641607     1.59600
O128        O  0.01800736  0.14844487  0.16221666    -0.80700
O129        O  0.95842883  0.11870381  0.22204428    -1.91200
Cd130      Cd  0.89826738  0.11985331  0.22058324     1.59900
O131        O  0.01705777  0.09535935  0.15839884    -0.80700
O132        O  0.87385725  0.11799723  0.26814376    -0.79300
C133        C  0.02055580  0.05288317  0.25805121     0.83200
C134        C  0.02129462  0.17925150  0.26626006     0.82900
O135        O  0.92888768  0.11428162  0.29941365    -0.78300
C136        C  0.89504948  0.18368287  0.18252683     0.83700
O137        O  0.00922105  0.07641283  0.27584738    -0.78400
C138        C  0.02960600  0.12253837  0.14858466     0.83800
C139        C  0.89222004  0.05804521  0.17888028     0.84100
O140        O  0.93036354  0.05461424  0.17729607    -0.80800
C141        C  0.77416410  0.12096392  0.43226363    -0.27400
C142        C  0.79150864  0.09629146  0.41356557     0.02200
C143        C  0.78936943  0.06484170  0.42534903     0.30200
C144        C  0.77229035  0.05856635  0.45653977    -0.19200
C145        C  0.75671471  0.08337442  0.47638648    -0.28600
C146        C  0.75657227  0.11471746  0.46342875     0.44300
C147        C  0.81605502  0.10363416  0.38389340     0.05500
O148        O  0.80565316  0.04025171  0.40719548    -0.57200
H149        H  0.77216630  0.03423846  0.46555637     0.18400
O150        O  0.74211561  0.13977255  0.48192403    -0.63900
H151        H  0.77587391  0.14529578  0.42336008     0.16900
C152        C  0.79851402  0.10999360  0.35263707     0.29100
C153        C  0.82307257  0.11438733  0.32453287    -0.24800
C154        C  0.86533702  0.11261464  0.32718533    -0.24000
C155        C  0.88259626  0.10723218  0.35906404     0.40600
C156        C  0.85795387  0.10256065  0.38688399    -0.26500
O157        O  0.75749986  0.11152700  0.34923248    -0.58400
H158        H  0.80889806  0.11872028  0.30054636     0.16200
O159        O  0.92347248  0.10546593  0.36334479    -0.59800
H160        H  0.87164004  0.09768430  0.41097339     0.14600
H161        H  0.71393872  0.14266134  0.47432684     0.46500
H162        H  0.74854191  0.08909322  0.34676858     0.41900
H163        H  0.93198379  0.12741753  0.36930527     0.45300
H164        H  0.78509370  0.03488580  0.39006857     0.36800
C165        C  0.10952136  0.10024568  0.08502537    -0.27400
C166        C  0.10327502  0.12366525  0.06062085     0.02200
C167        C  0.07636798  0.14877274  0.06708593     0.30200
C168        C  0.05389762  0.14900409  0.09665633    -0.19200
C169        C  0.05767114  0.12416518  0.11995577    -0.28600
C170        C  0.08699599  0.10040482  0.11461595     0.44300
C171        C  0.11851936  0.11835981  0.02641181     0.05500
O172        O  0.06996346  0.17203740  0.04363578    -0.57200
H173        H  0.03191483  0.16771233  0.10049683     0.18400
O174        O  0.09299795  0.07669819  0.13764662    -0.63900
H175        H  0.13021395  0.08081310  0.08026820     0.16900
C176        C  0.15925690  0.12230322  0.01796121     0.29100
C177        C  0.17220180  0.11544662  0.98527554    -0.24800
C178        C  0.14496413  0.10383027  0.96114088    -0.24000
C179        C  0.10406456  0.10059327  0.96974067     0.40600
C180        C  0.09123801  0.10781229  0.00208350    -0.26500
O181        O  0.18637164  0.13308386  0.04128804    -0.58400
H182        H  0.20371663  0.11827711  0.97909364     0.16200
O183        O  0.07623611  0.09041289  0.94670722    -0.59800
H184        H  0.05978117  0.10473061  0.00839722     0.14600
H185        H  0.11164154  0.08596603  0.15446267     0.46500
H186        H  0.19903962  0.11361866  0.05057580     0.41900
H187        H  0.06506117  0.11014556  0.93675285     0.45300
H188        H  0.09141850  0.18803082  0.04767360     0.36800
C189        C  0.61931894  0.20784603  0.64032351    -0.27400
C190        C  0.60334948  0.17859927  0.62966745     0.02200
C191        C  0.56281139  0.17152119  0.63654120     0.30200
C192        C  0.53894455  0.19352726  0.65388667    -0.19200
C193        C  0.55481115  0.22295467  0.66454938    -0.28600
C194        C  0.59545389  0.23003889  0.65728151     0.44300
C195        C  0.62932591  0.15576387  0.61137151     0.05500
O196        O  0.54613874  0.14326881  0.62613235    -0.57200
H197        H  0.50785553  0.18749117  0.65890487     0.18400
O198        O  0.61225680  0.25866534  0.66630780    -0.63900
H199        H  0.65055127  0.21354566  0.63546325     0.16900
C200        C  0.64999473  0.16504161  0.58228105     0.29100
C201        C  0.67506117  0.14334987  0.56576287    -0.24800
C202        C  0.68009140  0.11212482  0.57777903    -0.24000
C203        C  0.65866660  0.10273803  0.60663133     0.40600
C204        C  0.63388480  0.12455912  0.62327272    -0.26500
O205        O  0.64457727  0.19489356  0.56907064    -0.58400
H206        H  0.69074230  0.15117902  0.54351713     0.16200
O207        O  0.66117860  0.07224068  0.61866311    -0.59800
H208        H  0.61819145  0.11708033  0.64565797     0.14600
H209        H  0.60745510  0.27297037  0.64698810     0.46500
H210        H  0.66966933  0.20671418  0.57425794     0.41900
H211        H  0.64074724  0.05997243  0.60589077     0.45300
H212        H  0.53329504  0.14806775  0.60430144     0.36800
C213        C  0.35298202  0.19103541  0.82884439    -0.27400
C214        C  0.32318947  0.17494516  0.81042816     0.02200
C215        C  0.32059255  0.18005115  0.77562062     0.30200
C216        C  0.34671186  0.20170484  0.76010116    -0.19200
C217        C  0.37535918  0.21876400  0.77884217    -0.28600
C218        C  0.37888831  0.21271459  0.81339990     0.44300
C219        C  0.29303489  0.15533694  0.82854522     0.05500
O220        O  0.29064055  0.16598705  0.75707583    -0.57200
H221        H  0.34335770  0.20613186  0.73354038     0.18400
O222        O  0.40721869  0.22815355  0.83246900    -0.63900
H223        H  0.35568530  0.18719603  0.85555935     0.16900
C224        C  0.28386576  0.12380969  0.81899949     0.29100
C225        C  0.25426328  0.10666020  0.83625454    -0.24800
C226        C  0.23392908  0.12014724  0.86373627    -0.24000
C227        C  0.24388615  0.15154392  0.87362879     0.40600
C228        C  0.27307606  0.16870043  0.85612186    -0.26500
O229        O  0.30401363  0.10933545  0.79319723    -0.58400
H230        H  0.24761404  0.08253003  0.82827720     0.16200
O231        O  0.22499872  0.16605086  0.90007075    -0.59800
H232        H  0.27968053  0.19292314  0.86385401     0.14600
H233        H  0.43120018  0.21410935  0.83203328     0.46500
H234        H  0.32713183  0.09837026  0.80383345     0.41900
H235        H  0.20186608  0.17757539  0.89010415     0.45300
H236        H  0.30451319  0.15108542  0.74162394     0.36800
C237        C  0.61595267  0.36092083  0.93472153    -0.27400
C238        C  0.62211133  0.33089542  0.92032344     0.02200
C239        C  0.64922897  0.30960703  0.93542524     0.30200
C240        C  0.66873376  0.31813812  0.96530318    -0.19200
C241        C  0.66153257  0.34790068  0.98057805    -0.28600
C242        C  0.63548867  0.36965099  0.96431327     0.44300
C243        C  0.59894896  0.32211744  0.89003997     0.05500
O244        O  0.65610356  0.28015371  0.92162749    -0.57200
H245        H  0.68869912  0.30102286  0.97692719     0.18400
O246        O  0.62818199  0.39939986  0.97721632    -0.63900
H247        H  0.59558908  0.37769534  0.92297777     0.16900
C248        C  0.55677146  0.32025633  0.89125985     0.29100
C249        C  0.53469262  0.31500961  0.86194625    -0.24800
C250        C  0.55398011  0.31198135  0.83078047    -0.24000
C251        C  0.59656115  0.31283555  0.82986797     0.40600
C252        C  0.61860798  0.31785561  0.85938064    -0.26500
O253        O  0.53689310  0.32337352  0.92114883    -0.58400
H254        H  0.50219942  0.31411594  0.86366377     0.16200
O255        O  0.61702166  0.30994125  0.80025714    -0.59800
H256        H  0.65111017  0.31940910  0.85817403     0.14600
H257        H  0.64955924  0.41321090  0.96781280     0.46500
H258        H  0.52706517  0.34568724  0.92163635     0.41900
H259        H  0.62278508  0.28684725  0.79793848     0.45300
H260        H  0.63516498  0.26609742  0.93128210     0.36800
C261        C  0.80353838  0.30903849  0.11625918    -0.27400
C262        C  0.80204674  0.27650828  0.10825804     0.02200
C263        C  0.77658680  0.26610532  0.08222813     0.30200
C264        C  0.75173559  0.28790277  0.06568683    -0.19200
C265        C  0.75201462  0.32034549  0.07454125    -0.28600
C266        C  0.77912577  0.33093450  0.09943660     0.44300
C267        C  0.82599019  0.25344351  0.12796163     0.05500
O268        O  0.77543650  0.23459043  0.07305777    -0.57200
H269        H  0.73148361  0.27920633  0.04644856     0.18400
O270        O  0.78196330  0.36259800  0.10768415    -0.63900
H271        H  0.82313196  0.31743389  0.13610263     0.16900
C272        C  0.86797516  0.25639930  0.13088676     0.29100
C273        C  0.88989411  0.23382755  0.14909134    -0.24800
C274        C  0.87052367  0.20819435  0.16505499    -0.24000
C275        C  0.82815656  0.20588305  0.16277805     0.40600
C276        C  0.80640209  0.22836615  0.14435108    -0.26500
O277        O  0.88802259  0.28045088  0.11477202    -0.58400
H278        H  0.92229826  0.23630032  0.15030156     0.16200
O279        O  0.80751071  0.18194758  0.17855401    -0.59800
H280        H  0.77395949  0.22621980  0.14286639     0.14600
H281        H  0.80142563  0.37166839  0.09151089     0.46500
H282        H  0.89494315  0.29612440  0.13249772     0.41900
H283        H  0.80292627  0.16546547  0.16112126     0.45300
H284        H  0.79720126  0.23207472  0.05632224     0.36800
C285        C  0.35537912  0.28594522  0.56083966    -0.27400
C286        C  0.32878034  0.31120520  0.55512915     0.02200
C287        C  0.32283802  0.33431332  0.58014273     0.30200
C288        C  0.34404695  0.33233052  0.61032959    -0.19200
C289        C  0.37156857  0.30749086  0.61594180    -0.28600
C290        C  0.37688529  0.28401030  0.59093156     0.44300
C291        C  0.31186323  0.31595115  0.52143398     0.05500
O292        O  0.29681922  0.35919913  0.57499951    -0.57200
H293        H  0.33942367  0.35056464  0.62918216     0.18400
O294        O  0.40438759  0.25995213  0.59493172    -0.63900
H295        H  0.36077552  0.26847940  0.54133426     0.16900
C296        C  0.33094865  0.33702183  0.49944701     0.29100
C297        C  0.31421444  0.34306836  0.46813865    -0.24800
C298        C  0.27818028  0.32828542  0.45788508    -0.24000
C299        C  0.25973354  0.30618159  0.47971696     0.40600
C300        C  0.27661650  0.30027157  0.51135471    -0.26500
O301        O  0.36560131  0.35247295  0.50876330    -0.58400
H302        H  0.32964884  0.35973276  0.45201300     0.16200
O303        O  0.22464137  0.29107012  0.47105027    -0.59800
H304        H  0.26187546  0.28384514  0.52823564     0.14600
H305        H  0.42964706  0.26812795  0.58494018     0.46500
H306        H  0.38779467  0.33907158  0.49999508     0.41900
H307        H  0.23309159  0.27046011  0.46109878     0.45300
H308        H  0.31363826  0.37668876  0.56595100     0.36800
C309        C  0.13974122  0.29529903  0.31761318    -0.27400
C310        C  0.12226794  0.27043087  0.33601472     0.02200
C311        C  0.13279394  0.26704130  0.37002246     0.30200
C312        C  0.16174026  0.28709794  0.38440915    -0.19200
C313        C  0.18038213  0.31134244  0.36567770    -0.28600
C314        C  0.16800546  0.31586303  0.33215830     0.44300
C315        C  0.09493486  0.24729064  0.31902821     0.05500
O316        O  0.11540259  0.24390820  0.38941187    -0.57200
H317        H  0.16986588  0.28328485  0.41034824     0.18400
O318        O  0.18360095  0.33995373  0.31302783    -0.63900
H319        H  0.13255842  0.29826920  0.29137559     0.16900
C320        C  0.06412518  0.25754540  0.29721208     0.29100
C321        C  0.04057468  0.23512815  0.27999718    -0.24800
C322        C  0.04649035  0.20235612  0.28473302    -0.24000
C323        C  0.07664618  0.19205632  0.30701713     0.40600
C324        C  0.10084657  0.21439257  0.32355786    -0.26500
O325        O  0.05564345  0.28937613  0.29372346    -0.58400
H326        H  0.01705486  0.24343580  0.26335977     0.16200
O327        O  0.08329012  0.16019659  0.31233904    -0.59800
H328        H  0.12486323  0.20585679  0.33953719     0.14600
H329        H  0.20610233  0.33013873  0.30041928     0.46500
H330        H  0.06303030  0.29477906  0.27037633     0.41900
H331        H  0.10300169  0.15372985  0.29500638     0.45300
H332        H  0.08979440  0.25332719  0.39738582     0.36800
C333        C  0.35646762  0.47279309  0.27724042    -0.27400
C334        C  0.33839290  0.47707641  0.30857480     0.02200
C335        C  0.34144904  0.50697872  0.32453090     0.30200
C336        C  0.36216219  0.53201330  0.30912469    -0.19200
C337        C  0.38028735  0.52789938  0.27764752    -0.28600
C338        C  0.37754742  0.49769059  0.26190137     0.44300
C339        C  0.31875884  0.44973595  0.32549616     0.05500
O340        O  0.32446769  0.51192389  0.35536613    -0.57200
H341        H  0.36394496  0.55475360  0.32193988     0.18400
O342        O  0.39593986  0.49189678  0.23180244    -0.63900
H343        H  0.35527331  0.44972856  0.26502354     0.16900
C344        C  0.28711118  0.43249759  0.31047751     0.29100
C345        C  0.26893551  0.40712741  0.32766929    -0.24800
C346        C  0.28235552  0.39810479  0.35972420    -0.24000
C347        C  0.31477249  0.41527402  0.37425635     0.40600
C348        C  0.33247345  0.44061145  0.35715132    -0.26500
O349        O  0.27284429  0.44097951  0.27952895    -0.58400
H350        H  0.24431472  0.39452402  0.31576056     0.16200
O351        O  0.33011250  0.40740352  0.40501614    -0.59800
H352        H  0.35739241  0.45317716  0.36871814     0.14600
H353        H  0.42327561  0.48417917  0.23761312     0.46500
H354        H  0.28388074  0.42485680  0.26384732     0.41900
H355        H  0.31668521  0.42197131  0.42107970     0.45300
H356        H  0.29671914  0.51935662  0.35068763     0.36800
C357        C  0.61948736  0.51471618  0.14919734    -0.27400
C358        C  0.60041471  0.48708600  0.13738552     0.02200
C359        C  0.55900807  0.48296522  0.14283427     0.30200
C360        C  0.53697990  0.50670805  0.15911256    -0.19200
C361        C  0.55555688  0.53500859  0.17016697    -0.28600
C362        C  0.59743928  0.53861761  0.16552661     0.44300
C363        C  0.62330767  0.46325933  0.11792861     0.05500
O364        O  0.54005119  0.45543613  0.13291168    -0.57200
H365        H  0.50507923  0.50288487  0.16289194     0.18400
O366        O  0.61687751  0.56586271  0.17552420    -0.63900
H367        H  0.65139162  0.51810230  0.14499826     0.16900
C368        C  0.61370832  0.45758276  0.08421349     0.29100
C369        C  0.63347705  0.43359174  0.06650370    -0.24800
C370        C  0.66332777  0.41474292  0.08177723    -0.24000
C371        C  0.67416691  0.42151281  0.11534076     0.40600
C372        C  0.65409586  0.44561409  0.13310231    -0.26500
O373        O  0.58445816  0.47508395  0.06845731    -0.58400
H374        H  0.62469695  0.42952461  0.04074629     0.16200
O375        O  0.70321916  0.40416970  0.13148963    -0.59800
H376        H  0.66190473  0.45002349  0.15904402     0.14600
H377        H  0.62954490  0.56046592  0.19727184     0.46500
H378        H  0.59873092  0.49363556  0.05876643     0.41900
H379        H  0.72825495  0.41683336  0.12917721     0.45300
H380        H  0.52366827  0.46140070  0.11312716     0.36800
C381        C  0.64781347  0.48739464  0.63524707    -0.27400
C382        C  0.62328979  0.46578828  0.61771612     0.02200
C383        C  0.62021433  0.46826117  0.58271173     0.30200
C384        C  0.63915125  0.49317930  0.56604354    -0.19200
C385        C  0.66200051  0.51597888  0.58355891    -0.28600
C386        C  0.66743658  0.51221483  0.61842961     0.44300
C387        C  0.59870873  0.44208637  0.63593618     0.05500
O388        O  0.59780168  0.44685218  0.56455997    -0.57200
H389        H  0.63519284  0.49486590  0.53920447     0.18400
O390        O  0.68983240  0.53352969  0.63668016    -0.63900
H391        H  0.65051573  0.48579164  0.66221139     0.16900
C392        C  0.61588434  0.42074785  0.65900495     0.29100
C393        C  0.59167419  0.39803962  0.67483505    -0.24800
C394        C  0.55014515  0.39618764  0.66803883    -0.24000
C395        C  0.53306339  0.41792370  0.64516419     0.40600
C396        C  0.55725810  0.44058562  0.62954102    -0.26500
O397        O  0.65629243  0.42158543  0.66596166    -0.58400
H398        H  0.60556179  0.38175486  0.69238660     0.16200
O399        O  0.49304386  0.41659265  0.63684495    -0.59800
H400        H  0.54348299  0.45708451  0.61213476     0.14600
H401        H  0.71740225  0.52450930  0.63707700     0.46500
H402        H  0.66927836  0.40976070  0.64737744     0.41900
H403        H  0.47989442  0.43300639  0.65098078     0.45300
H404        H  0.61610944  0.42865275  0.56025305     0.36800
C405        C  0.55062322  0.61476850  0.39505263    -0.27400
C406        C  0.59244666  0.61099531  0.39361210     0.02200
C407        C  0.61211145  0.61356877  0.36264325     0.30200
C408        C  0.58966976  0.61855045  0.33341277    -0.19200
C409        C  0.54745456  0.62117598  0.33448460    -0.28600
C410        C  0.52810473  0.61989307  0.36596917     0.44300
C411        C  0.61453868  0.60214392  0.42435287     0.05500
O412        O  0.65289230  0.60909149  0.36043438    -0.57200
H413        H  0.60541538  0.61935462  0.30972628     0.18400
O414        O  0.48720175  0.62326993  0.36875193    -0.63900
H415        H  0.53522990  0.61309191  0.41887012     0.16900
C416        C  0.64479521  0.62173999  0.43790569     0.29100
C417        C  0.66405256  0.61303283  0.46771284    -0.24800
C418        C  0.65331164  0.58491580  0.48470092    -0.24000
C419        C  0.62318657  0.56512607  0.47055495     0.40600
C420        C  0.60409372  0.57395082  0.44084128    -0.26500
O421        O  0.65507945  0.64982254  0.42267218    -0.58400
H422        H  0.68693197  0.62874600  0.47780578     0.16200
O423        O  0.61121054  0.53746598  0.48579132    -0.59800
H424        H  0.58080396  0.55866985  0.43060098     0.14600
H425        H  0.47647542  0.60123699  0.36988813     0.46500
H426        H  0.63559528  0.66574617  0.43124662     0.41900
H427        H  0.62849159  0.52056708  0.47605475     0.45300
H428        H  0.66434441  0.63063271  0.35677004     0.36800
C429        C  0.33406388  0.49289451  0.85093337    -0.27400
C430        C  0.31208437  0.47528936  0.82735175     0.02200
C431        C  0.27218113  0.48408803  0.82006124     0.30200
C432        C  0.25433274  0.50960216  0.83722299    -0.19200
C433        C  0.27601645  0.52677942  0.86152716    -0.28600
C434        C  0.31660406  0.51868549  0.86763025     0.44300
C435        C  0.33143028  0.44775077  0.81074716     0.05500
O436        O  0.24990638  0.46695636  0.79736131    -0.57200
H437        H  0.22322046  0.51548738  0.83200563     0.18400
O438        O  0.33972152  0.53595189  0.88962795    -0.63900
H439        H  0.36507933  0.48671935  0.85621632     0.16900
C440        C  0.33984636  0.44821056  0.77633649     0.29100
C441        C  0.36034087  0.42270276  0.76151993    -0.24800
C442        C  0.37319307  0.39637737  0.78060647    -0.24000
C443        C  0.36398793  0.39585013  0.81515623     0.40600
C444        C  0.34360271  0.42151898  0.82990889    -0.26500
O445        O  0.32912972  0.47389932  0.75713210    -0.58400
H446        H  0.36684774  0.42394758  0.73501011     0.16200
O447        O  0.37576694  0.37094903  0.83504327    -0.59800
H448        H  0.33746438  0.42105358  0.85653010     0.14600
H449        H  0.34993144  0.55427971  0.87651821     0.46500
H450        H  0.35240181  0.48865956  0.75834516     0.41900
H451        H  0.35186540  0.35687072  0.83654657     0.45300
H452        H  0.24856479  0.48047546  0.77707392     0.36800
C453        C  0.33868586  0.58466584  0.07383721    -0.27400
C454        C  0.32656666  0.61190713  0.05653876     0.02200
C455        C  0.33661974  0.64217405  0.06919389     0.30200
C456        C  0.35908223  0.64479031  0.09888642    -0.19200
C457        C  0.37225244  0.61734194  0.11598740    -0.28600
C458        C  0.36154826  0.58704486  0.10298937     0.44300
C459        C  0.30741643  0.60775783  0.02350658     0.05500
O460        O  0.32554677  0.66921287  0.05231212    -0.57200
H461        H  0.36686140  0.66829861  0.10810902     0.18400
O462        O  0.37361340  0.55936915  0.11819152    -0.63900
H463        H  0.33137171  0.56124840  0.06403644     0.16900
C464        C  0.32996639  0.59482569  0.99711007     0.29100
C465        C  0.31150069  0.58803706  0.96662399    -0.24800
C466        C  0.27023320  0.59354373  0.96182743    -0.24000
C467        C  0.24756449  0.60693824  0.98816604     0.40600
C468        C  0.26629304  0.61395851  0.01888478    -0.26500
O469        O  0.37029759  0.58886267  0.00093993    -0.58400
H470        H  0.32971942  0.57822243  0.94665363     0.16200
O471        O  0.20689303  0.61142550  0.98487118    -0.59800
H472        H  0.24855004  0.62333298  0.03938079     0.14600
H473        H  0.39911332  0.55339637  0.10694673     0.46500
H474        H  0.37229971  0.56563246  0.00515916     0.41900
H475        H  0.20362105  0.63433587  0.97950822     0.45300
H476        H  0.34615592  0.67196348  0.03463454     0.36800
C477        C  0.80690684  0.69442520  0.65647712    -0.27400
C478        C  0.82280607  0.67852432  0.62866166     0.02200
C479        C  0.86254289  0.68442254  0.61869604     0.30200
C480        C  0.88625015  0.70588443  0.63689462    -0.19200
C481        C  0.87055876  0.72192547  0.66493176    -0.28600
C482        C  0.83041317  0.71606462  0.67460316     0.44300
C483        C  0.79743114  0.65583369  0.61019122     0.05500
O484        O  0.87789332  0.67013523  0.59057417    -0.57200
H485        H  0.91671421  0.71047604  0.62860710     0.18400
O486        O  0.81382024  0.73126769  0.70168204    -0.63900
H487        H  0.77616620  0.68997396  0.66414861     0.16900
C488        C  0.79957262  0.62305829  0.61690899     0.29100
C489        C  0.77333040  0.60203058  0.60067621    -0.24800
C490        C  0.74509931  0.61332715  0.57730881    -0.24000
C491        C  0.74362569  0.64629122  0.57027899     0.40600
C492        C  0.76971768  0.66724237  0.58674367    -0.26500
O493        O  0.82622143  0.61157786  0.64017902    -0.58400
H494        H  0.77498102  0.57685528  0.60648324     0.16200
O495        O  0.71602031  0.65849468  0.54821968    -0.59800
H496        H  0.76788158  0.69255570  0.58164393     0.14600
H497        H  0.82039514  0.71761015  0.72115525     0.46500
H498        H  0.85082994  0.60622361  0.62735896     0.41900
H499        H  0.69143100  0.66227931  0.56167549     0.45300
H500        H  0.89368464  0.65172339  0.59886156     0.36800
C501        C  0.12467668  0.65380867  0.86744828    -0.27400
C502        C  0.12507485  0.65509268  0.83233213     0.02200
C503        C  0.15223394  0.63581398  0.81450531     0.30200
C504        C  0.17829692  0.61558354  0.83180417    -0.19200
C505        C  0.17836001  0.61444709  0.86696611    -0.28600
C506        C  0.15105428  0.63377449  0.88480520     0.44300
C507        C  0.09878205  0.67809239  0.81479769     0.05500
O508        O  0.15559188  0.63836314  0.78037584    -0.57200
H509        H  0.19958218  0.60157671  0.81748666     0.18400
O510        O  0.15012517  0.63363611  0.91910804    -0.63900
H511        H  0.10400524  0.66864169  0.88149210     0.16900
C512        C  0.07332598  0.66856909  0.78836401     0.29100
C513        C  0.04971254  0.69116404  0.77181892    -0.24800
C514        C  0.05014642  0.72326331  0.78187628    -0.24000
C515        C  0.07546797  0.73268715  0.80848728     0.40600
C516        C  0.09942259  0.71017156  0.82467971    -0.26500
O517        O  0.07072986  0.63719329  0.77890473    -0.58400
H518        H  0.03031085  0.68337946  0.75156633     0.16200
O519        O  0.07748767  0.76389797  0.81866419    -0.59800
H520        H  0.11904383  0.71790384  0.84481196     0.14600
H521        H  0.12945747  0.61758994  0.92508473     0.46500
H522        H  0.04891318  0.62808046  0.79280862     0.41900
H523        H  0.09958909  0.77341732  0.80537637     0.45300
H524        H  0.14719319  0.61737336  0.77125566     0.36800
C525        C  0.81096982  0.91515246  0.64135892    -0.27400
C526        C  0.83095526  0.94152717  0.62776652     0.02200
C527        C  0.87288192  0.94419368  0.63155331     0.30200
C528        C  0.89432101  0.92044226  0.64829249    -0.19200
C529        C  0.87464061  0.89368619  0.66162926    -0.28600
C530        C  0.83241472  0.89120709  0.65798077     0.44300
C531        C  0.80794197  0.96621851  0.60961681     0.05500
O532        O  0.89284557  0.97073344  0.62033398    -0.57200
H533        H  0.92654002  0.92329935  0.65108899     0.18400
O534        O  0.81165529  0.86568495  0.67060505    -0.63900
H535        H  0.77864857  0.91292182  0.63866618     0.16900
C536        C  0.81742502  0.97390644  0.57634536     0.29100
C537        C  0.79731704  0.99874887  0.56025887    -0.24800
C538        C  0.76696076  0.01619148  0.57664098    -0.24000
C539        C  0.75613192  0.00725506  0.60955087     0.40600
C540        C  0.77671846  0.98256131  0.62574417    -0.26500
O541        O  0.84657656  0.95738335  0.55935278    -0.58400
H542        H  0.80606121  0.00452000  0.53489652     0.16200
O543        O  0.72607756  0.02271685  0.62648908    -0.59800
H544        H  0.76878682  0.97655568  0.65125234     0.14600
H545        H  0.81106382  0.84975370  0.65222672     0.46500
H546        H  0.83255958  0.93868724  0.54955045     0.41900
H547        H  0.70133441  0.01031997  0.62160574     0.45300
H548        H  0.91009885  0.96321942  0.60169416     0.36800
C549        C  0.07816566  0.95145823  0.77948080    -0.27400
C550        C  0.08221863  0.95079144  0.81438884     0.02200
C551        C  0.06732274  0.92442315  0.83217980     0.30200
C552        C  0.04845815  0.89936477  0.81506736    -0.19200
C553        C  0.04380037  0.90005529  0.78002906    -0.28600
C554        C  0.05900320  0.92658038  0.76229386     0.44300
C555        C  0.10128570  0.97806842  0.83196839     0.05500
O556        O  0.07095208  0.92293601  0.86633890    -0.57200
H557        H  0.03706884  0.87947369  0.82944811     0.18400
O558        O  0.05561578  0.92849733  0.72815122    -0.63900
H559        H  0.08929320  0.97170742  0.76549304     0.16900
C560        C  0.14054346  0.98798018  0.82395115     0.29100
C561        C  0.15739996  0.01459732  0.83989268    -0.24800
C562        C  0.13579412  0.03159850  0.86431538    -0.24000
C563        C  0.09646944  0.02140246  0.87247391     0.40600
C564        C  0.07958904  0.99493671  0.85627861    -0.26500
O565        O  0.16276645  0.97168358  0.80064368    -0.58400
H566        H  0.18771890  0.02168644  0.83336973     0.16200
O567        O  0.07346426  0.03793952  0.89505672    -0.59800
H568        H  0.04910351  0.98787633  0.86232942     0.14600
H569        H  0.03129212  0.94163092  0.72408531     0.46500
H570        H  0.17710152  0.95494185  0.81344768     0.41900
H571        H  0.07529194  0.02565232  0.91617457     0.45300
H572        H  0.09843372  0.91463185  0.87048381     0.36800
C573        C  0.75409208  0.95834634  0.11712464    -0.27400
C574        C  0.79210724  0.96885288  0.10667965     0.02200
C575        C  0.80885426  0.95636922  0.07720499     0.30200
C576        C  0.78887219  0.93234014  0.05963493    -0.19200
C577        C  0.75193108  0.92014870  0.07103165    -0.28600
C578        C  0.73388908  0.93418830  0.09946334     0.44300
C579        C  0.81564622  0.99136939  0.12738432     0.05500
O580        O  0.84555159  0.96676816  0.06600488    -0.57200
H581        H  0.80336244  0.92236918  0.03772768     0.18400
O582        O  0.69710063  0.92406040  0.11068625    -0.63900
H583        H  0.74070078  0.96814647  0.13960202     0.16900
C584        C  0.80388265  0.02333216  0.13108673     0.29100
C585        C  0.82878680  0.04470268  0.14841705    -0.24800
C586        C  0.86561262  0.03457993  0.16218525    -0.24000
C587        C  0.87645705  0.00220459  0.15955797     0.40600
C588        C  0.85164882  0.98095131  0.14209398    -0.26500
O589        O  0.76931892  0.03425465  0.11626126    -0.58400
H590        H  0.81982381  0.06947073  0.15023987     0.16200
O591        O  0.91113396  0.99104260  0.17400646    -0.59800
H592        H  0.86070470  0.95624041  0.13970438     0.14600
H593        H  0.67714521  0.93685226  0.09804862     0.46500
H594        H  0.74837745  0.03279529  0.13382542     0.41900
H595        H  0.90353218  0.98538719  0.19723424     0.45300
H596        H  0.83966434  0.98617773  0.05276405     0.36800
C597        C  0.79044239  0.86176877  0.92486974    -0.27400
C598        C  0.79472180  0.82970136  0.91605026     0.02200
C599        C  0.77769031  0.80604390  0.93644245     0.30200
C600        C  0.75748603  0.81469275  0.96593658    -0.19200
C601        C  0.75428639  0.84690366  0.97554088    -0.28600
C602        C  0.77041382  0.87052448  0.95416614     0.44300
C603        C  0.81878988  0.82164641  0.88621641     0.05500
O604        O  0.78188566  0.77444565  0.92834568    -0.57200
H605        H  0.74556621  0.79609384  0.98183798     0.18400
O606        O  0.76755818  0.90231861  0.96185255    -0.63900
H607        H  0.80340055  0.88012901  0.90919089     0.16900
C608        C  0.80176197  0.82271134  0.85406177     0.29100
C609        C  0.82610261  0.81837072  0.82583235    -0.24800
C610        C  0.86791020  0.81370008  0.82908104    -0.24000
C611        C  0.88477058  0.81274929  0.86163034     0.40600
C612        C  0.86013584  0.81638511  0.88976605    -0.26500
O613        O  0.76141658  0.82834971  0.84999427    -0.58400
H614        H  0.81224372  0.81948613  0.80131118     0.16200
O615        O  0.92529777  0.80860766  0.86640544    -0.59800
H616        H  0.87358357  0.81613134  0.91449111     0.14600
H617        H  0.74073965  0.90896928  0.95350070     0.46500
H618        H  0.75870514  0.85189056  0.84978555     0.41900
H619        H  0.93648781  0.83044777  0.86850144     0.45300
H620        H  0.75682756  0.76873623  0.91623216     0.36800
C621        C  0.65136350  0.76719390  0.09094215    -0.27400
C622        C  0.62551582  0.77936950  0.11557332     0.02200
C623        C  0.62342442  0.81255292  0.12045903     0.30200
C624        C  0.64707798  0.83298032  0.10092966    -0.19200
C625        C  0.67269216  0.82091202  0.07592217    -0.28600
C626        C  0.67451450  0.78760105  0.07099117     0.44300
C627        C  0.60060910  0.75710524  0.13563623     0.05500
O628        O  0.59967082  0.82509074  0.14526415    -0.57200
H629        H  0.64528932  0.85841729  0.10541710     0.18400
O630        O  0.70015013  0.77456628  0.04785971    -0.63900
H631        H  0.65338569  0.74168340  0.08700193     0.16900
C632        C  0.55835022  0.75832098  0.13428929     0.29100
C633        C  0.53531911  0.73595282  0.15178632    -0.24800
C634        C  0.55365536  0.71170688  0.17074232    -0.24000
C635        C  0.59619623  0.71108379  0.17270704     0.40600
C636        C  0.61916696  0.73345760  0.15502348    -0.26500
O637        O  0.53919415  0.78070653  0.11506422    -0.58400
H638        H  0.50287057  0.73721464  0.14972386     0.16200
O639        O  0.61585139  0.68835346  0.19112673    -0.59800
H640        H  0.65169481  0.73225502  0.15631669     0.14600
H641        H  0.68339424  0.77076781  0.02767734     0.46500
H642        H  0.53718055  0.77105179  0.09244176     0.41900
H643        H  0.61837390  0.69758782  0.21390852     0.45300
H644        H  0.57724885  0.83595175  0.13352112     0.36800
C645        C  0.07581608  0.00272572  0.32262737    -0.27400
C646        C  0.07872000  0.97355469  0.30574941     0.02200
C647        C  0.06593036  0.97125861  0.27232547     0.30200
C648        C  0.04824992  0.99755675  0.25670340    -0.19200
C649        C  0.04361771  0.02662663  0.27390211    -0.28600
C650        C  0.05912968  0.02934331  0.30678978     0.44300
C651        C  0.09383119  0.94522282  0.32345711     0.05500
O652        O  0.06864779  0.94287621  0.25536721    -0.57200
H653        H  0.03707238  0.99479911  0.23138121     0.18400
O654        O  0.05761257  0.05766164  0.32395863    -0.63900
H655        H  0.08635420  0.00478659  0.34822170     0.16900
C656        C  0.13153176  0.93219401  0.31561619     0.29100
C657        C  0.14428326  0.90417926  0.33120071    -0.24800
C658        C  0.11988177  0.88880110  0.35493476    -0.24000
C659        C  0.08207886  0.90220754  0.36291881     0.40600
C660        C  0.06952002  0.93034970  0.34736531    -0.26500
O661        O  0.15596316  0.94655714  0.29251946    -0.58400
H662        H  0.17353076  0.89460338  0.32477645     0.16200
O663        O  0.05672083  0.88775831  0.38524597    -0.59800
H664        H  0.04026234  0.94019406  0.35335736     0.14600
H665        H  0.08248768  0.06917377  0.31754269     0.46500
H666        H  0.17092581  0.96311529  0.30519981     0.41900
H667        H  0.04071485  0.87244798  0.37173819     0.45300
H668        H  0.09303677  0.94484146  0.24126960     0.36800
C669        C  0.08492649  0.77592978  0.57059260    -0.27400
C670        C  0.09212437  0.80508752  0.55466840     0.02200
C671        C  0.08575939  0.83366654  0.57236836     0.30200
C672        C  0.06843826  0.83300128  0.60409350    -0.19200
C673        C  0.05751717  0.80397766  0.61903435    -0.28600
C674        C  0.06809621  0.77517395  0.60272759     0.44300
C675        C  0.10155952  0.80613256  0.51855123     0.05500
O676        O  0.09427638  0.86255838  0.55802543    -0.57200
H677        H  0.06184251  0.85548901  0.61627163     0.18400
O678        O  0.06008497  0.74616405  0.61695923    -0.63900
H679        H  0.09028287  0.75373995  0.55741040     0.16900
C680        C  0.13597625  0.79151279  0.50507031     0.29100
C681        C  0.14536200  0.79578572  0.47117101    -0.24800
C682        C  0.12082742  0.81476426  0.45045429    -0.24000
C683        C  0.08489644  0.82742276  0.46371616     0.40600
C684        C  0.07570836  0.82314605  0.49740439    -0.26500
O685        O  0.16131466  0.77407484  0.52500738    -0.58400
H686        H  0.17284576  0.78539788  0.46154873     0.16200
O687        O  0.05878870  0.84463342  0.44427311    -0.59800
H688        H  0.04844474  0.83371335  0.50729405     0.14600
H689        H  0.08435135  0.74103345  0.63037085     0.46500
H690        H  0.18212872  0.78936894  0.53273738     0.41900
H691        H  0.04162623  0.82853182  0.43296660     0.45300
H692        H  0.12369710  0.86540339  0.56089652     0.36800
C693        C  0.30840645  0.74256190  0.27212771    -0.27400
C694        C  0.30592417  0.74391304  0.30712930     0.02200
C695        C  0.33301564  0.72601631  0.32654375     0.30200
C696        C  0.36125132  0.70636057  0.31094760    -0.19200
C697        C  0.36339007  0.70441277  0.27587866    -0.28600
C698        C  0.33693925  0.72310138  0.25642823     0.44300
C699        C  0.27338386  0.76236878  0.32320703     0.05500
O700        O  0.33170528  0.72722000  0.36083127    -0.57200
H701        H  0.38145621  0.69247047  0.32642419     0.18400
O702        O  0.33693007  0.72102208  0.22216903    -0.63900
H703        H  0.28727349  0.75582738  0.25690543     0.16900
C704        C  0.26865396  0.79516748  0.31725122     0.29100
C705        C  0.23731240  0.81185782  0.33270959    -0.24800
C706        C  0.21030898  0.79622458  0.35418397    -0.24000
C707        C  0.21499943  0.76328831  0.35987257     0.40600
C708        C  0.24624912  0.74665961  0.34432949    -0.26500
O709        O  0.29546069  0.81129534  0.29746645    -0.58400
H710        H  0.23454616  0.83722325  0.32824529     0.16200
O711        O  0.18824482  0.74682071  0.37938486    -0.59800
H712        H  0.24909429  0.72125397  0.34852825     0.14600
H713        H  0.35243353  0.73980398  0.21445962     0.46500
H714        H  0.28128861  0.81466307  0.27590216     0.41900
H715        H  0.20176709  0.74440193  0.40137600     0.45300
H716        H  0.34924822  0.74538679  0.36717041     0.36800
loop_ 
_geom_bond_atom_site_label_1 
_geom_bond_atom_site_label_2 
_geom_bond_distance 
_geom_bond_site_symmetry_2 
_ccdc_geom_bond_type 
C1            N2   1.357       .  A
C1            N6   1.358       .  A
C1          C706   1.478       .  S
N2            C3   1.357       .  A
C3            N4   1.357       .  A
C3          C658   1.483       .  S
N4            C5   1.359       .  A
C5            N6   1.358       .  A
C5          C682   1.483       .  S
C7            N8   1.361       .  A
C7           N12   1.364       .  A
C7          C625   1.488       .  S
N8            C9   1.358       .  A
C9           N10   1.355       .  A
C9          C577   1.485       .  S
N10          C11   1.355       .  A
C11          N12   1.362       .  A
C11         C601   1.488   1_554  S
O13          C29   1.274       .  A
O13         Zn19   2.019       .  S
C14         C514   1.476       .  S
C14          O30   1.274       .  A
C14          O27   1.274       .  A
O15          C28   1.274       .  A
O15         Cd22   2.068   1_455  S
O16          C34   1.273       .  A
O16         Cd25   2.066   1_455  S
O17          C31   1.274       .  A
O17         Cd21   2.064       .  S
O18          C29   1.275       .  A
O18         Cd21   2.072       .  S
Zn19         O30   2.005   1_655  S
Zn19         O32   2.020   1_655  S
Zn19         O24   1.934       .  S
O20          C31   1.274       .  A
O20         Cd25   2.064       .  S
Cd21         O23   2.062       .  S
Cd21         O24   2.000       .  S
Cd22         O26   2.062       .  S
Cd22         O35   2.067   1_655  S
Cd22         O24   1.990       .  S
O23          C33   1.274       .  A
O24         Cd25   1.999       .  S
Cd25         O27   2.059   1_655  S
O26          C33   1.275       .  A
C28         C553   1.490       .  S
C28          O32   1.274       .  A
C29         C610   1.490       .  S
C31         C481   1.478       .  S
C33         C529   1.484       .  S
C34         C673   1.486       .  S
C34          O35   1.275       .  A
C36          N37   1.362       .  A
C36          N41   1.361       .  A
C36         C505   1.480       .  S
N37          C38   1.359       .  A
C38          N39   1.356       .  A
C38         C466   1.478       .  S
N39          C40   1.353       .  A
C40          N41   1.355       .  A
C40         C433   1.480       .  S
C42          N43   1.360       .  A
C42          N47   1.360       .  A
C42         C490   1.478       .  S
N43          C44   1.358       .  A
C44          N45   1.354       .  A
C44         C418   1.489       .  S
N45          C46   1.356       .  A
C46          N47   1.357       .  A
C46         C385   1.484       .  S
O48          C64   1.274       .  A
O48         Zn54   2.012       .  S
C49         C697   1.480       .  S
C49          O65   1.275       .  A
C49          O62   1.276       .  A
O50          C63   1.271       .  A
O50         Cd57   2.056       .  S
O51          C69   1.277       .  A
O51         Cd60   2.091       .  S
O52          C66   1.276       .  A
O52         Cd56   2.079       .  S
O53          C64   1.276       .  A
O53         Cd56   2.075       .  S
Zn54         O65   2.010       .  S
Zn54         O67   2.038       .  S
Zn54         O59   1.943       .  S
O55          C66   1.278       .  A
O55         Cd60   2.083       .  S
Cd56         O58   2.084       .  S
Cd56         O59   2.005       .  S
Cd57         O61   2.048       .  S
Cd57         O70   2.044       .  S
Cd57         O59   1.982       .  S
O58          C68   1.276       .  A
O59         Cd60   2.010       .  S
Cd60         O62   2.072       .  S
O61          C68   1.273       .  A
C63         C337   1.490       .  S
C63          O67   1.276       .  A
C64         C409   1.488       .  S
C66         C634   1.494       .  S
C68         C361   1.486       .  S
C69         C457   1.489       .  S
C69          O70   1.272       .  A
C71          N72   1.365       .  A
C71          N76   1.363       .  A
C71         C313   1.492       .  S
N72          C73   1.361       .  A
C73          N74   1.353       .  A
C73         C346   1.494       .  S
N74          C75   1.354       .  A
C75          N76   1.358       .  A
C75         C298   1.488       .  S
C77          N78   1.361       .  A
C77          N82   1.362       .  A
C77         C265   1.482       .  S
N78          C79   1.357       .  A
C79          N80   1.356       .  A
C79         C370   1.490       .  S
N80          C81   1.356       .  A
C81          N82   1.360       .  A
C81         C241   1.490   1_554  S
O83          C99   1.276       .  A
O83         Zn89   2.020       .  S
C84         C250   1.490       .  S
C84         O100   1.276       .  A
C84          O97   1.274       .  A
O85          C98   1.274       .  A
O85         Cd92   2.065       .  S
O86         C104   1.274       .  A
O86         Cd95   2.061       .  S
O87         C101   1.275       .  A
O87         Cd91   2.074       .  S
O88          C99   1.276       .  A
O88         Cd91   2.070       .  S
Zn89        O100   2.023       .  S
Zn89        O102   2.040       .  S
Zn89         O94   1.943       .  S
O90         C101   1.274       .  A
O90         Cd95   2.065       .  S
Cd91         O93   2.070       .  S
Cd91         O94   2.003       .  S
Cd92         O96   2.070       .  S
Cd92        O105   2.063       .  S
Cd92         O94   1.995       .  S
O93         C103   1.274       .  A
O94         Cd95   2.001       .  S
Cd95         O97   2.069       .  S
O96         C103   1.275       .  A
C98         C442   1.492       .  S
C98         O102   1.276       .  A
C99         C217   1.481       .  S
C101        C193   1.487       .  S
C103        C289   1.480       .  S
C104        C394   1.483       .  S
C104        O105   1.274       .  A
C106        N107   1.361       .  A
C106        N111   1.362       .  A
C106        C226   1.489       .  S
N107        C108   1.358       .  A
C108        N109   1.357       .  A
C108        C178   1.479       .  S
N109        C110   1.356       .  A
C110        N111   1.360       .  A
C110        C562   1.486       .  S
C112        N113   1.360       .  A
C112        N117   1.360       .  A
C112        C202   1.485       .  S
N113        C114   1.357       .  A
C114        N115   1.357       .  A
C114        C145   1.484       .  S
N115        C116   1.358       .  A
C116        N117   1.359       .  A
C116        C538   1.490       .  S
O118        C134   1.273       .  A
O118       Zn124   2.012   1_455  S
C119        C154   1.489       .  S
C119        O135   1.274       .  A
C119        O132   1.274       .  A
O120        C133   1.274       .  A
O120       Cd127   2.069   1_455  S
O121        C139   1.274       .  A
O121       Cd130   2.061       .  S
O122        C136   1.275       .  A
O122       Cd126   2.067       .  S
O123        C134   1.275       .  A
O123       Cd126   2.069   1_455  S
Zn124       O135   2.017       .  S
Zn124       O137   2.010   1_655  S
Zn124       O129   1.938       .  S
O125        C136   1.274       .  A
O125       Cd130   2.066       .  S
Cd126       O128   2.070   1_655  S
Cd126       O129   2.000       .  S
Cd127       O131   2.081   1_655  S
Cd127       O140   2.086       .  S
Cd127       O129   2.002       .  S
O128        C138   1.275       .  A
O129       Cd130   2.001       .  S
Cd130       O132   2.070       .  S
O131        C138   1.277       .  A
C133        C649   1.485       .  S
C133        O137   1.273       .  A
C134        C322   1.476       .  S
C136        C274   1.487       .  S
C138        C169   1.479       .  S
C139        C586   1.480       .  S
C139        O140   1.278       .  A
C141        C142   1.400       .  A
C141        C146   1.402       .  A
C141        H151   1.084       .  S
C142        C147   1.474       .  S
C142        C143   1.404       .  A
C143        C144   1.396       .  A
C143        O148   1.372       .  S
C144        C145   1.407       .  A
C144        H149   1.083       .  S
C145        C146   1.415       .  A
C146        O150   1.371       .  S
C147        C152   1.404       .  A
C147        C156   1.399       .  A
O148        H164   0.992       .  S
O150        H161   0.992       .  S
C152        C153   1.402       .  A
C152        O157   1.372       .  S
C153        C154   1.411       .  A
C153        H158   1.083       .  S
C154        C155   1.415       .  A
C155        C156   1.396       .  A
C155        O159   1.371       .  S
C156        H160   1.084       .  S
O157        H162   0.992       .  S
O159        H163   0.992       .  S
C165        C166   1.402       .  A
C165        C170   1.401       .  A
C165        H175   1.084       .  S
C166        C171   1.475       .  S
C166        C167   1.406       .  A
C167        C168   1.399       .  A
C167        O172   1.371       .  S
C168        C169   1.405       .  A
C168        H173   1.084       .  S
C169        C170   1.411       .  A
C170        O174   1.371       .  S
C171        C176   1.406       .  A
C171        C180   1.399       .  A
O172        H188   0.992       .  S
O174        H185   0.992       .  S
C176        C177   1.405   1_554  A
C176        O181   1.371       .  S
C177        C178   1.408       .  A
C177        H182   1.083       .  S
C178        C179   1.410       .  A
C179        C180   1.394   1_556  A
C179        O183   1.371       .  S
C180        H184   1.084       .  S
O181        H186   0.992       .  S
O183        H187   0.992       .  S
C189        C190   1.402       .  A
C189        C194   1.398       .  A
C189        H199   1.083       .  S
C190        C195   1.482       .  S
C190        C191   1.408       .  A
C191        C192   1.401       .  A
C191        O196   1.372       .  S
C192        C193   1.407       .  A
C192        H197   1.083       .  S
C193        C194   1.414       .  A
C194        O198   1.372       .  S
C195        C200   1.407       .  A
C195        C204   1.402       .  A
O196        H212   0.992       .  S
O198        H209   0.992       .  S
C200        C201   1.399       .  A
C200        O205   1.372       .  S
C201        C202   1.407       .  A
C201        H206   1.083       .  S
C202        C203   1.413       .  A
C203        C204   1.400       .  A
C203        O207   1.371       .  S
C204        H208   1.084       .  S
O205        H210   0.992       .  S
O207        H211   0.992       .  S
C213        C214   1.404       .  A
C213        C218   1.398       .  A
C213        H223   1.084       .  S
C214        C219   1.487       .  S
C214        C215   1.410       .  A
C215        C216   1.403       .  A
C215        O220   1.372       .  S
C216        C217   1.405       .  A
C216        H221   1.084       .  S
C217        C218   1.409       .  A
C218        O222   1.372       .  S
C219        C224   1.409       .  A
C219        C228   1.403       .  A
O220        H236   0.992       .  S
O222        H233   0.992       .  S
C224        C225   1.402       .  A
C224        O229   1.371       .  S
C225        C226   1.408       .  A
C225        H230   1.083       .  S
C226        C227   1.413       .  A
C227        C228   1.398       .  A
C227        O231   1.371       .  S
C228        H232   1.084       .  S
O229        H234   0.992       .  S
O231        H235   0.992       .  S
C237        C238   1.399       .  A
C237        C242   1.396       .  A
C237        H247   1.084       .  S
C238        C243   1.479       .  S
C238        C239   1.406       .  A
C239        C240   1.403       .  A
C239        O244   1.371       .  S
C240        C241   1.409       .  A
C240        H245   1.083       .  S
C241        C242   1.417       .  A
C242        O246   1.371       .  S
C243        C248   1.405       .  A
C243        C252   1.401       .  A
O244        H260   0.992       .  S
O246        H257   0.992       .  S
C248        C249   1.398       .  A
C248        O253   1.372       .  S
C249        C250   1.407       .  A
C249        H254   1.083       .  S
C250        C251   1.417       .  A
C251        C252   1.403       .  A
C251        O255   1.371       .  S
C252        H256   1.084       .  S
O253        H258   0.992       .  S
O255        H259   0.992       .  S
C261        C262   1.402       .  A
C261        C266   1.399       .  A
C261        H271   1.083       .  S
C262        C267   1.481       .  S
C262        C263   1.408       .  A
C263        C264   1.399       .  A
C263        O268   1.372       .  S
C264        C265   1.406       .  A
C264        H269   1.083       .  S
C265        C266   1.412       .  A
C266        O270   1.371       .  S
C267        C272   1.406       .  A
C267        C276   1.402       .  A
O268        H284   0.992       .  S
O270        H281   0.992       .  S
C272        C273   1.400       .  A
C272        O277   1.372       .  S
C273        C274   1.408       .  A
C273        H278   1.083       .  S
C274        C275   1.415       .  A
C275        C276   1.399       .  A
C275        O279   1.372       .  S
C276        H280   1.084       .  S
O277        H282   0.992       .  S
O279        H283   0.992       .  S
C285        C286   1.400       .  A
C285        C290   1.400       .  A
C285        H295   1.084       .  S
C286        C291   1.472       .  S
C286        C287   1.405       .  A
C287        C288   1.399       .  A
C287        O292   1.372       .  S
C288        C289   1.405       .  A
C288        H293   1.084       .  S
C289        C290   1.413       .  A
C290        O294   1.372       .  S
C291        C296   1.401       .  A
C291        C300   1.402       .  A
O292        H308   0.992       .  S
O294        H305   0.992       .  S
C296        C297   1.392       .  A
C296        O301   1.372       .  S
C297        C298   1.409       .  A
C297        H302   1.082       .  S
C298        C299   1.415       .  A
C299        C300   1.405       .  A
C299        O303   1.371       .  S
C300        H304   1.083       .  S
O301        H306   0.992       .  S
O303        H307   0.992       .  S
C309        C310   1.404       .  A
C309        C314   1.400       .  A
C309        H319   1.082       .  S
C310        C315   1.491       .  S
C310        C311   1.410       .  A
C311        C312   1.400       .  A
C311        O316   1.372       .  S
C312        C313   1.409       .  A
C312        H317   1.083       .  S
C313        C314   1.414       .  A
C314        O318   1.371       .  S
C315        C320   1.412       .  A
C315        C324   1.407       .  A
O316        H332   0.992       .  S
O318        H329   0.992       .  S
C320        C321   1.402       .  A
C320        O325   1.373       .  S
C321        C322   1.402       .  A
C321        H326   1.084       .  S
C322        C323   1.408       .  A
C323        C324   1.399       .  A
C323        O327   1.372       .  S
C324        H328   1.083       .  S
O325        H330   0.992       .  S
O327        H331   0.992       .  S
C333        C334   1.401       .  A
C333        C338   1.401       .  A
C333        H343   1.083       .  S
C334        C339   1.485       .  S
C334        C335   1.409       .  A
C335        C336   1.400       .  A
C335        O340   1.372       .  S
C336        C337   1.406       .  A
C336        H341   1.083       .  S
C337        C338   1.416       .  A
C338        O342   1.372       .  S
C339        C344   1.409       .  A
C339        C348   1.398       .  A
O340        H356   0.992       .  S
O342        H353   0.992       .  S
C344        C345   1.405       .  A
C344        O349   1.372       .  S
C345        C346   1.408       .  A
C345        H350   1.083       .  S
C346        C347   1.419       .  A
C347        C348   1.396       .  A
C347        O351   1.371       .  S
C348        H352   1.084       .  S
O349        H354   0.992       .  S
O351        H355   0.992       .  S
C357        C358   1.402       .  A
C357        C362   1.403       .  A
C357        H367   1.084       .  S
C358        C363   1.477       .  S
C358        C359   1.405       .  A
C359        C360   1.397       .  A
C359        O364   1.373       .  S
C360        C361   1.408       .  A
C360        H365   1.083       .  S
C361        C362   1.413       .  A
C362        O366   1.371       .  S
C363        C368   1.404       .  A
C363        C372   1.401       .  A
O364        H380   0.992       .  S
O366        H377   0.992       .  S
C368        C369   1.394       .  A
C368        O373   1.372       .  S
C369        C370   1.408       .  A
C369        H374   1.082       .  S
C370        C371   1.416       .  A
C371        C372   1.404       .  A
C371        O375   1.371       .  S
C372        H376   1.084       .  S
O373        H378   0.992       .  S
O375        H379   0.992       .  S
C381        C382   1.404       .  A
C381        C386   1.402       .  A
C381        H391   1.083       .  S
C382        C387   1.481       .  S
C382        C383   1.407       .  A
C383        C384   1.392       .  A
C383        O388   1.372       .  S
C384        C385   1.406       .  A
C384        H389   1.083       .  S
C385        C386   1.414       .  A
C386        O390   1.371       .  S
C387        C392   1.407       .  A
C387        C396   1.402       .  A
O388        H404   0.992       .  S
O390        H401   0.992       .  S
C392        C393   1.400       .  A
C392        O397   1.372       .  S
C393        C394   1.409       .  A
C393        H398   1.083       .  S
C394        C395   1.412       .  A
C395        C396   1.395       .  A
C395        O399   1.372       .  S
C396        H400   1.084       .  S
O397        H402   0.992       .  S
O399        H403   0.992       .  S
C405        C406   1.401       .  A
C405        C410   1.398       .  A
C405        H415   1.084       .  S
C406        C411   1.478       .  S
C406        C407   1.405       .  A
C407        C408   1.401       .  A
C407        O412   1.372       .  S
C408        C409   1.409       .  A
C408        H413   1.083       .  S
C409        C410   1.415       .  A
C410        O414   1.372       .  S
C411        C416   1.406       .  A
C411        C420   1.400       .  A
O412        H428   0.992       .  S
O414        H425   0.992       .  S
C416        C417   1.401       .  A
C416        O421   1.371       .  S
C417        C418   1.409       .  A
C417        H422   1.083       .  S
C418        C419   1.417       .  A
C419        C420   1.396       .  A
C419        O423   1.371       .  S
C420        H424   1.084       .  S
O421        H426   0.992       .  S
O423        H427   0.992       .  S
C429        C430   1.400       .  A
C429        C434   1.397       .  A
C429        H439   1.084       .  S
C430        C435   1.479       .  S
C430        C431   1.407       .  A
C431        C432   1.402       .  A
C431        O436   1.372       .  S
C432        C433   1.406       .  A
C432        H437   1.083       .  S
C433        C434   1.412       .  A
C434        O438   1.372       .  S
C435        C440   1.404       .  A
C435        C444   1.402       .  A
O436        H452   0.992       .  S
O438        H449   0.992       .  S
C440        C441   1.400       .  A
C440        O445   1.372       .  S
C441        C442   1.410       .  A
C441        H446   1.083       .  S
C442        C443   1.415       .  A
C443        C444   1.402       .  A
C443        O447   1.371       .  S
C444        H448   1.084       .  S
O445        H450   0.992       .  S
O447        H451   0.992       .  S
C453        C454   1.397       .  A
C453        C458   1.393       .  A
C453        H463   1.084       .  S
C454        C459   1.474       .  S
C454        C455   1.406       .  A
C455        C456   1.405       .  A
C455        O460   1.372       .  S
C456        C457   1.410       .  A
C456        H461   1.083       .  S
C457        C458   1.417       .  A
C458        O462   1.372       .  S
C459        C464   1.403   1_554  A
C459        C468   1.404       .  A
O460        H476   0.992       .  S
O462        H473   0.992       .  S
C464        C465   1.392       .  A
C464        O469   1.372   1_556  S
C465        C466   1.404       .  A
C465        H470   1.083       .  S
C466        C467   1.411       .  A
C467        C468   1.406   1_556  A
C467        O471   1.371       .  S
C468        H472   1.083       .  S
O469        H474   0.992       .  S
O471        H475   0.991       .  S
C477        C478   1.400       .  A
C477        C482   1.398       .  A
C477        H487   1.084       .  S
C478        C483   1.468       .  S
C478        C479   1.403       .  A
C479        C480   1.398       .  A
C479        O484   1.372       .  S
C480        C481   1.407       .  A
C480        H485   1.084       .  S
C481        C482   1.412       .  A
C482        O486   1.372       .  S
C483        C488   1.404       .  A
C483        C492   1.398       .  A
O484        H500   0.992       .  S
O486        H497   0.992       .  S
C488        C489   1.398       .  A
C488        O493   1.372       .  S
C489        C490   1.406       .  A
C489        H494   1.084       .  S
C490        C491   1.413       .  A
C491        C492   1.397       .  A
C491        O495   1.372       .  S
C492        H496   1.084       .  S
O493        H498   0.992       .  S
O495        H499   0.992       .  S
C501        C502   1.405       .  A
C501        C506   1.399       .  A
C501        H511   1.084       .  S
C502        C507   1.479       .  S
C502        C503   1.406       .  A
C503        C504   1.397       .  A
C503        O508   1.373       .  S
C504        C505   1.406       .  A
C504        H509   1.083       .  S
C505        C506   1.411       .  A
C506        O510   1.371       .  S
C507        C512   1.409       .  A
C507        C516   1.402       .  A
O508        H524   0.992       .  S
O510        H521   0.992       .  S
C512        C513   1.398       .  A
C512        O517   1.371       .  S
C513        C514   1.405       .  A
C513        H518   1.084       .  S
C514        C515   1.411       .  A
C515        C516   1.395       .  A
C515        O519   1.372       .  S
C516        H520   1.084       .  S
O517        H522   0.992       .  S
O519        H523   0.992       .  S
C525        C526   1.402       .  A
C525        C530   1.400       .  A
C525        H535   1.084       .  S
C526        C531   1.479       .  S
C526        C527   1.406       .  A
C527        C528   1.397       .  A
C527        O532   1.373       .  S
C528        C529   1.406       .  A
C528        H533   1.083       .  S
C529        C530   1.415       .  A
C530        O534   1.372       .  S
C531        C536   1.405       .  A
C531        C540   1.401       .  A
O532        H548   0.992       .  S
O534        H545   0.992       .  S
C536        C537   1.396       .  A
C536        O541   1.372       .  S
C537        C538   1.408   1_565  A
C537        H542   1.083   1_565  S
C538        C539   1.416       .  A
C539        C540   1.401   1_545  A
C539        O543   1.370       .  S
C540        H544   1.084       .  S
O541        H546   0.992       .  S
O543        H547   0.992       .  S
C549        C550   1.402       .  A
C549        C554   1.400       .  A
C549        H559   1.084       .  S
C550        C555   1.483       .  S
C550        C551   1.407       .  A
C551        C552   1.400       .  A
C551        O556   1.372       .  S
C552        C553   1.409       .  A
C552        H557   1.083       .  S
C553        C554   1.415       .  A
C554        O558   1.371       .  S
C555        C560   1.407       .  A
C555        C564   1.402       .  A
O556        H572   0.992       .  S
O558        H569   0.992       .  S
C560        C561   1.401   1_565  A
C560        O565   1.371       .  S
C561        C562   1.406       .  A
C561        H566   1.083       .  S
C562        C563   1.414       .  A
C563        C564   1.400   1_545  A
C563        O567   1.371       .  S
C564        H568   1.084       .  S
O565        H570   0.992       .  S
O567        H571   0.992       .  S
C573        C574   1.403       .  A
C573        C578   1.404       .  A
C573        H583   1.083       .  S
C574        C579   1.477       .  S
C574        C575   1.404       .  A
C575        C576   1.395       .  A
C575        O580   1.372       .  S
C576        C577   1.407       .  A
C576        H581   1.083       .  S
C577        C578   1.413       .  A
C578        O582   1.371       .  S
C579        C584   1.405   1_565  A
C579        C588   1.403       .  A
O580        H596   0.992       .  S
O582        H593   0.992       .  S
C584        C585   1.401       .  A
C584        O589   1.371       .  S
C585        C586   1.407       .  A
C585        H590   1.084       .  S
C586        C587   1.409       .  A
C587        C588   1.399   1_545  A
C587        O591   1.372   1_545  S
C588        H592   1.084       .  S
O589        H594   0.992       .  S
O591        H595   0.992       .  S
C597        C598   1.397       .  A
C597        C602   1.396       .  A
C597        H607   1.084       .  S
C598        C603   1.476       .  S
C598        C599   1.406       .  A
C599        C600   1.405       .  A
C599        O604   1.371       .  S
C600        C601   1.408       .  A
C600        H605   1.083       .  S
C601        C602   1.416       .  A
C602        O606   1.372       .  S
C603        C608   1.404       .  A
C603        C612   1.399       .  A
O604        H620   0.992       .  S
O606        H617   0.992       .  S
C608        C609   1.401       .  A
C608        O613   1.372       .  S
C609        C610   1.410       .  A
C609        H614   1.083       .  S
C610        C611   1.416       .  A
C611        C612   1.400       .  A
C611        O615   1.372       .  S
C612        H616   1.084       .  S
O613        H618   0.992       .  S
O615        H619   0.992       .  S
C621        C622   1.403       .  A
C621        C626   1.402       .  A
C621        H631   1.084       .  S
C622        C627   1.486       .  S
C622        C623   1.407       .  A
C623        C624   1.403       .  A
C623        O628   1.372       .  S
C624        C625   1.408       .  A
C624        H629   1.083       .  S
C625        C626   1.412       .  A
C626        O630   1.371       .  S
C627        C632   1.407       .  A
C627        C636   1.403       .  A
O628        H644   0.992       .  S
O630        H641   0.992       .  S
C632        C633   1.400       .  A
C632        O637   1.371       .  S
C633        C634   1.408       .  A
C633        H638   1.083       .  S
C634        C635   1.417       .  A
C635        C636   1.403       .  A
C635        O639   1.371       .  S
C636        H640   1.084       .  S
O637        H642   0.992       .  S
O639        H643   0.992       .  S
C645        C646   1.399   1_545  A
C645        C650   1.400       .  A
C645        H655   1.084       .  S
C646        C651   1.473       .  S
C646        C647   1.404       .  A
C647        C648   1.398       .  A
C647        O652   1.372       .  S
C648        C649   1.407   1_565  A
C648        H653   1.083       .  S
C649        C650   1.415       .  A
C650        O654   1.371       .  S
C651        C656   1.403       .  A
C651        C660   1.400       .  A
O652        H668   0.992       .  S
O654        H665   0.992       .  S
C656        C657   1.397       .  A
C656        O661   1.371       .  S
C657        C658   1.407       .  A
C657        H662   1.083       .  S
C658        C659   1.414       .  A
C659        C660   1.399       .  A
C659        O663   1.371       .  S
C660        H664   1.084       .  S
O661        H666   0.992       .  S
O663        H667   0.992       .  S
C669        C670   1.401       .  A
C669        C674   1.402       .  A
C669        H679   1.084       .  S
C670        C675   1.478       .  S
C670        C671   1.407       .  A
C671        C672   1.394       .  A
C671        O676   1.372       .  S
C672        C673   1.406       .  A
C672        H677   1.083       .  S
C673        C674   1.416       .  A
C674        O678   1.371       .  S
C675        C680   1.406       .  A
C675        C684   1.401       .  A
O676        H692   0.992       .  S
O678        H689   0.992       .  S
C680        C681   1.403       .  A
C680        O685   1.371       .  S
C681        C682   1.409       .  A
C681        H686   1.083       .  S
C682        C683   1.411       .  A
C683        C684   1.393       .  A
C683        O687   1.371       .  S
C684        H688   1.084       .  S
O685        H690   0.992       .  S
O687        H691   0.992       .  S
C693        C694   1.402       .  A
C693        C698   1.400       .  A
C693        H703   1.083       .  S
C694        C699   1.478       .  S
C694        C695   1.406       .  A
C695        C696   1.396       .  A
C695        O700   1.372       .  S
C696        C697   1.406       .  A
C696        H701   1.084       .  S
C697        C698   1.412       .  A
C698        O702   1.372       .  S
C699        C704   1.406       .  A
C699        C708   1.402       .  A
O700        H716   0.992       .  S
O702        H713   0.992       .  S
C704        C705   1.399       .  A
C704        O709   1.372       .  S
C705        C706   1.406       .  A
C705        H710   1.084       .  S
C706        C707   1.410       .  A
C707        C708   1.397       .  A
C707        O711   1.372       .  S
C708        H712   1.084       .  S
O709        H714   0.992       .  S
O711        H715   0.992       .  S
