geometry optimzed in LAMMPS
_audit_creation_date              2020-11-30 
_audit_creation_method            'lammps2cif' 
_symmetry_space_group_name_H-M    'P1' 
_symmetry_Int_Tables_number       1 
_symmetry_cell_setting            triclinic 
loop_ 
_symmetry_equiv_pos_as_xyz 
  x,y,z 
_cell_length_a                    35.75740588 
_cell_length_b                    35.95359767137058 
_cell_length_c                    57.59452714672441 
_cell_angle_alpha                 90.11050653654218 
_cell_angle_beta                  90.11514483777587 
_cell_angle_gamma                 89.9716817441215 
loop_ 
_atom_site_label 
_atom_site_type_symbol 
_atom_site_fract_x 
_atom_site_fract_y 
_atom_site_fract_z 
_atom_site_charge 
O1          O  0.22301030  0.76049472  0.59997699    -0.57600
C2          C  0.18764245  0.79886632  0.65295388     0.75000
O3          O  0.23392817  0.68319357  0.66477313    -0.58800
C4          C  0.24520223  0.73958791  0.58891571     0.75000
C5          C  0.30059712  0.77623944  0.66397424     0.77300
Cd6        Cd  0.23829996  0.74121539  0.63949375     1.37500
O7          O  0.21809531  0.80629892  0.64292505    -0.57600
O8          O  0.30392734  0.76524717  0.64314402    -0.56500
C9          C  0.20180539  0.67391386  0.65724591     0.77300
O10         O  0.27132786  0.76569063  0.67433533    -0.58800
O11         O  0.17927180  0.76487368  0.65466055    -0.57300
O12         O  0.26534985  0.71816194  0.60124045    -0.57300
O13         O  0.18955545  0.69295206  0.64045509    -0.56400
O14         O  0.21363334  0.76673344  0.40449002    -0.57600
C15         C  0.17433359  0.80731453  0.35144347     0.75000
O16         O  0.29234932  0.77859318  0.36056151    -0.58800
C17         C  0.23831422  0.74700261  0.41432557     0.75000
C18         C  0.19721807  0.68174638  0.34565160     0.77300
Cd19       Cd  0.22810468  0.75117162  0.36409805     1.37500
O20         O  0.20624785  0.81559748  0.35930756    -0.57600
O21         O  0.18569062  0.69665834  0.36418821    -0.56500
C22         C  0.29032096  0.78524997  0.33898347     0.77300
O23         O  0.22615412  0.69629801  0.33679445    -0.58800
O24         O  0.16576326  0.77324941  0.35179203    -0.57300
O25         O  0.25936798  0.72840557  0.40087674    -0.57300
O26         O  0.26201064  0.77199676  0.32869157    -0.56400
O27         O  0.77190378  0.23140372  0.59251213    -0.57600
C28         C  0.81234059  0.18959997  0.63891418     0.75000
O29         O  0.77290624  0.30754236  0.64078588    -0.58800
C30         C  0.74806244  0.25115584  0.58205969     0.75000
C31         C  0.68834606  0.20177340  0.65205703     0.77300
Cd32       Cd  0.75287977  0.24110837  0.63219508     1.37500
O33         O  0.81851579  0.22252261  0.63234507    -0.57600
O34         O  0.70536848  0.19115234  0.63403455    -0.56500
C35         C  0.78940390  0.29954986  0.65970235     0.77300
O36         O  0.69845645  0.23312855  0.66009117    -0.58800
O37         O  0.77850227  0.17974404  0.64029843    -0.57300
O38         O  0.72512460  0.26859415  0.59495826    -0.57300
O39         O  0.78458467  0.26671240  0.66688153    -0.56400
O40         O  0.77150886  0.21627870  0.39731915    -0.57600
C41         C  0.80035521  0.17322288  0.33700510     0.75000
O42         O  0.69842864  0.22909277  0.32956013    -0.58800
C43         C  0.74947041  0.23859542  0.40741925     0.75000
C44         C  0.79722523  0.29450013  0.33696958     0.77300
Cd45       Cd  0.75503730  0.23158739  0.35654838     1.37500
O46         O  0.77067285  0.18514352  0.32770272    -0.57600
O47         O  0.76282251  0.29868609  0.34187501    -0.56500
C48         C  0.68594201  0.19885933  0.33792030     0.77300
O49         O  0.81066816  0.26286943  0.34136904    -0.58800
O50         O  0.80907360  0.18727484  0.35650482    -0.57300
O51         O  0.72928791  0.25825550  0.39410160    -0.57300
O52         O  0.70303691  0.18680452  0.35563773    -0.56400
C53         C  0.44984251  0.97934364  0.26014319     0.86700
C54         C  0.47485911  0.95778555  0.24350139    -0.53600
C55         C  0.49792692  0.97895206  0.23031322     0.09600
C56         C  0.49376163  0.02137854  0.23480683     0.20500
C57         C  0.47707196  0.00395223  0.27432959    -0.54300
C58         C  0.50047891  0.02598008  0.26130311     0.09700
C59         C  0.42892966  0.00742261  0.24484187    -0.53800
C60         C  0.45126894  0.02994591  0.23146664     0.10300
H61         H  0.47510376  0.92755918  0.24268663     0.14800
H62         H  0.51257522  0.03821128  0.22374927     0.00500
H63         H  0.47672040  0.00552229  0.29305285     0.15100
H64         H  0.39875421  0.01022337  0.24566901     0.14900
O65         O  0.71638897  0.76979035  0.90587085    -0.57600
C66         C  0.78834082  0.80562406  0.87560915     0.75000
O67         O  0.75363748  0.71703754  0.83208822    -0.58800
C68         C  0.70103401  0.73999968  0.91239905     0.75000
C69         C  0.67363011  0.79302575  0.83855380     0.77300
Cd70       Cd  0.72939377  0.75308602  0.86631544     1.37500
O71         O  0.79514073  0.77139173  0.87303060    -0.57600
O72         O  0.66322324  0.76860713  0.85306964    -0.56500
C73         C  0.76995602  0.69195759  0.84377603     0.77300
O74         O  0.70851216  0.79513031  0.83528652    -0.58800
O75         O  0.75437973  0.81505778  0.87473960    -0.57300
O76         O  0.69766914  0.71459175  0.89720371    -0.57300
O77         O  0.76445050  0.69308648  0.86545651    -0.56400
O78         O  0.68884743  0.71261903  0.09795602    -0.57600
C79         C  0.78547493  0.79397287  0.11914767     0.75000
O80         O  0.70254228  0.79549266  0.15912855    -0.58800
C81         C  0.69323406  0.73810091  0.08297666     0.75000
C82         C  0.75649471  0.68983702  0.15477626     0.77300
Cd83       Cd  0.72097019  0.74992215  0.12941554     1.37500
O84         O  0.78751472  0.75905533  0.12110090    -0.57600
O85         O  0.74728303  0.72018002  0.16434388    -0.56500
C86         C  0.66756890  0.79299178  0.15649688     0.77300
O87         O  0.74517814  0.68523305  0.13411867    -0.58800
O88         O  0.75336295  0.80825249  0.12118563    -0.57300
O89         O  0.70898977  0.76753386  0.08991035    -0.57300
O90         O  0.65641494  0.76780789  0.14264740    -0.56400
O91         O  0.32321525  0.30001777  0.90349891    -0.57600
C92         C  0.22082475  0.23651150  0.88895115     0.75000
O93         O  0.23542742  0.30343612  0.83787847    -0.58800
C94         C  0.30052058  0.31619299  0.91704609     0.75000
C95         C  0.32568847  0.23684011  0.84696815     0.77300
Cd96       Cd  0.27548375  0.28772447  0.87208615     1.37500
O97         O  0.25535967  0.23092417  0.89177970    -0.57600
O98         O  0.29545787  0.22793377  0.85676502    -0.56500
C99         C  0.23300641  0.33807075  0.84145064     0.77300
O100        O  0.33376950  0.27135689  0.84765264    -0.58800
O101        O  0.21153850  0.26727578  0.88006973    -0.57300
O102        O  0.26834812  0.32232127  0.90884817    -0.57300
O103        O  0.25418878  0.35070013  0.85730667    -0.56400
O104        O  0.21683671  0.28138241  0.11977919    -0.57600
C105        C  0.31206039  0.32800952  0.08837510     0.75000
O106        O  0.25715121  0.34816741  0.16464272    -0.58800
C107        C  0.22778271  0.24858668  0.11590693     0.75000
C108        C  0.32175808  0.25372435  0.16256582     0.77300
Cd109      Cd  0.27875704  0.30354427  0.13214814     1.37500
O110        O  0.31503591  0.29536780  0.09603144    -0.57600
O111        O  0.33719736  0.28333836  0.15517825    -0.56500
C112        C  0.22492177  0.35310938  0.15563504     0.77300
O113        O  0.28708154  0.25113458  0.15863532    -0.58800
O114        O  0.29801558  0.35151750  0.10226314    -0.57300
O115        O  0.26255289  0.24288192  0.11702734    -0.57300
O116        O  0.21979878  0.33745524  0.13624766    -0.56400
O117        O  0.06944490  0.98438121  0.22075224    -0.57600
C118        C  0.96776543  0.03892782  0.22829908     0.75000
O119        O  0.02854095  0.06171363  0.17674331    -0.58800
C120        C  0.05176399  0.95842513  0.23073767     0.75000
C121        C  0.98496651  0.95951893  0.16013115     0.77300
Cd122      Cd  0.01723258  0.00308569  0.19626739     1.37500
O123        O  0.95552564  0.01847060  0.21206338    -0.57600
O124        O  0.97315234  0.99161809  0.16530850    -0.56500
C125        C  0.06150556  0.05375771  0.17056977     0.77300
O126        O  0.01298270  0.94769687  0.17137518    -0.58800
O127        O  0.00271729  0.04423919  0.22889429    -0.57300
O128        O  0.01898391  0.95173493  0.22351995    -0.57300
O129        O  0.07413229  0.02244046  0.17679128    -0.56400
C130        C  0.95599004  0.53352198  0.23058962     0.86700
C131        C  0.98349424  0.55570921  0.24591483    -0.53600
C132        C  0.00676894  0.53416071  0.25911246     0.09600
C133        C  0.00065981  0.49200890  0.25571457     0.20500
C134        C  0.98193797  0.50799632  0.21615436    -0.54300
C135        C  0.00604653  0.48661165  0.22917101     0.09700
C136        C  0.93582131  0.50744697  0.24721214    -0.53800
C137        C  0.95841417  0.48566053  0.26046901     0.10300
H138        H  0.98526848  0.58586738  0.24576910     0.14800
H139        H  0.01922809  0.47452102  0.26663915     0.00500
H140        H  0.98386482  0.50940150  0.19741232     0.15100
H141        H  0.90548893  0.50601895  0.24815010     0.14900
C142        C  0.45809434  0.98059342  0.73445190     0.86700
C143        C  0.43803146  0.00948694  0.74972658    -0.53600
C144        C  0.46131216  0.03205328  0.76244016     0.09600
C145        C  0.50342582  0.02316287  0.75865678     0.20500
C146        C  0.48501296  0.00422505  0.71953893    -0.54300
C147        C  0.50910273  0.02660917  0.73195733     0.09700
C148        C  0.48354124  0.95951481  0.75108060    -0.53800
C149        C  0.50706942  0.98091875  0.76390451     0.10300
H150        H  0.40778208  0.01210274  0.75020390     0.14800
H151        H  0.52253239  0.04044793  0.76934631     0.00500
H152        H  0.48391967  0.00487272  0.70079369     0.15100
H153        H  0.48315745  0.92935278  0.75249861     0.14900
C154        C  0.96222669  0.52151424  0.77062897     0.86700
C155        C  0.94231564  0.49285439  0.75532327    -0.53600
C156        C  0.96530239  0.47053777  0.74267395     0.09600
C157        C  0.00739713  0.47892819  0.74643448     0.20500
C158        C  0.98975415  0.49823866  0.78559210    -0.54300
C159        C  0.01376772  0.47613559  0.77297046     0.09700
C160        C  0.98819855  0.54287356  0.75400979    -0.53800
C161        C  0.01192114  0.52089463  0.74144162     0.10300
H162        H  0.91203645  0.49043703  0.75449483     0.14800
H163        H  0.02638878  0.46132088  0.73587284     0.00500
H164        H  0.99150786  0.49987133  0.80432127     0.15100
H165        H  0.98886330  0.57303489  0.75301250     0.14900
O166        O  0.06861935  0.03379207  0.81090132    -0.57600
C167        C  0.97025262  0.98049739  0.81653299     0.75000
O168        O  0.00140784  0.07571078  0.75946135    -0.58800
C169        C  0.05518997  0.06257733  0.82041145     0.75000
C170        C  0.05699821  0.97818240  0.75531098     0.77300
Cd171      Cd  0.01477893  0.02330068  0.78575233     1.37500
O172        O  0.00114454  0.96868791  0.80882926    -0.57600
O173        O  0.02975070  0.96638094  0.76712326    -0.56500
C174        C  0.97348364  0.06014328  0.74998792     0.77300
O175        O  0.06661440  0.01176726  0.75840581    -0.58800
O176        O  0.95969817  0.01227169  0.80964577    -0.57300
O177        O  0.02398681  0.07402373  0.81286535    -0.57300
O178        O  0.96384866  0.02894354  0.75809415    -0.56400
C179        C  0.16919929  0.42510130  0.22167230    -0.17700
C180        C  0.13850577  0.44318417  0.23186998    -0.19800
C181        C  0.10408883  0.44563824  0.22013009     0.20800
C182        C  0.10080027  0.43000595  0.19774627    -0.02800
C183        C  0.13191083  0.41189556  0.18737919    -0.05800
C184        C  0.16630590  0.40924515  0.19941737     0.21100
C185        C  0.12848245  0.39629110  0.16501727     0.19300
C186        C  0.09420321  0.39900596  0.15316251    -0.17300
C187        C  0.06352080  0.41687155  0.16339110    -0.19500
C188        C  0.06643671  0.43238983  0.18571567     0.20700
C189        C  0.03559367  0.45016721  0.19616562    -0.32500
C190        C  0.03842044  0.46588345  0.21857722     0.01400
C191        C  0.07302808  0.46348976  0.23034510    -0.23900
C192        C  0.19700253  0.39066442  0.18906188    -0.28400
C193        C  0.19376799  0.37477597  0.16672817     0.07100
C194        C  0.15922822  0.37801691  0.15491465    -0.27100
H195        H  0.19526177  0.42349268  0.23124406     0.11800
H196        H  0.14166215  0.45512967  0.24904839     0.13000
H197        H  0.09106101  0.38718317  0.13594576     0.12000
H198        H  0.03744658  0.41847154  0.15383647     0.11300
H199        H  0.00928555  0.45153114  0.18684801     0.16700
H200        H  0.07620240  0.47622794  0.24729260     0.12600
H201        H  0.22318258  0.38826406  0.19845216     0.15400
H202        H  0.15601739  0.36588047  0.13778194     0.15200
C203        C  0.20590397  0.11771335  0.12868271    -0.17700
C204        C  0.18272081  0.09050403  0.13810851    -0.19800
C205        C  0.14465509  0.09785926  0.14163884     0.20800
C206        C  0.12942149  0.13243425  0.13489319    -0.02800
C207        C  0.15285224  0.15997795  0.12557402    -0.05800
C208        C  0.19135567  0.15267679  0.12283872     0.21100
C209        C  0.13824429  0.19550580  0.12037267     0.19300
C210        C  0.09988072  0.20237921  0.12313957    -0.17300
C211        C  0.07646493  0.17479249  0.13205248    -0.19500
C212        C  0.09118792  0.14015185  0.13853762     0.20700
C213        C  0.06875091  0.11366510  0.14949733    -0.32500
C214        C  0.08423159  0.07990510  0.15712301     0.01400
C215        C  0.12190327  0.07176285  0.15263307    -0.23900
C216        C  0.21519834  0.18131993  0.11611423    -0.28400
C217        C  0.20143803  0.21761126  0.11344797     0.07100
C218        C  0.16273117  0.22422872  0.11426448    -0.27100
H219        H  0.23548146  0.11187539  0.12676089     0.11800
H220        H  0.19473713  0.06406415  0.14317688     0.13000
H221        H  0.08822304  0.22943428  0.11911720     0.12000
H222        H  0.04709315  0.18098807  0.13461916     0.11300
H223        H  0.03953642  0.11983584  0.15274986     0.16700
H224        H  0.13384543  0.04561440  0.15836061     0.12600
H225        H  0.24505783  0.17609948  0.11543635     0.15400
H226        H  0.15205327  0.25224717  0.11212635     0.15200
C227        C  0.13382356  0.35086539  0.78152249    -0.17700
C228        C  0.10223527  0.36919118  0.77269147    -0.19800
C229        C  0.08998841  0.40284699  0.78249500     0.20800
C230        C  0.11001118  0.41821949  0.80136150    -0.02800
C231        C  0.14221950  0.39985661  0.81015556    -0.05800
C232        C  0.15397910  0.36586167  0.80030053     0.21100
C233        C  0.16228649  0.41523654  0.82900699     0.19300
C234        C  0.14998046  0.44888326  0.83882535    -0.17300
C235        C  0.11807434  0.46694606  0.83019735    -0.19500
C236        C  0.09781816  0.45184952  0.81149093     0.20700
C237        C  0.06588122  0.46998156  0.80261491    -0.32500
C238        C  0.04594808  0.45519789  0.78352375     0.01400
C239        C  0.05826070  0.42143539  0.77368442    -0.23900
C240        C  0.18498376  0.34692505  0.80977916    -0.28400
C241        C  0.20470909  0.36147301  0.82900485     0.07100
C242        C  0.19356906  0.39619354  0.83813259    -0.27100
H243        H  0.14238108  0.32478571  0.77371853     0.11800
H244        H  0.08727116  0.35691657  0.75820521     0.13000
H245        H  0.16488281  0.46112531  0.85334649     0.12000
H246        H  0.10921415  0.49277653  0.83819559     0.11300
H247        H  0.05727679  0.49624466  0.81015708     0.16700
H248        H  0.04306119  0.40949323  0.75918115     0.12600
H249        H  0.19305057  0.32020649  0.80262048     0.15400
H250        H  0.20811213  0.40755383  0.85307684     0.15200
C251        C  0.43427038  0.19393125  0.79860200    -0.17700
C252        C  0.45361211  0.16507796  0.78727156    -0.19800
C253        C  0.44146822  0.12797651  0.78904577     0.20800
C254        C  0.40990857  0.11997061  0.80282849    -0.02800
C255        C  0.39043584  0.14909798  0.81430924    -0.05800
C256        C  0.40233028  0.18640529  0.81200030     0.21100
C257        C  0.35860005  0.14087076  0.82772304     0.19300
C258        C  0.34689962  0.10378278  0.83001276    -0.17300
C259        C  0.36593705  0.07512241  0.81857911    -0.19500
C260        C  0.39716886  0.08293274  0.80471075     0.20700
C261        C  0.41517304  0.05445238  0.79223194    -0.32500
C262        C  0.44603357  0.06211618  0.77786208     0.01400
C263        C  0.45954053  0.09894408  0.77678755    -0.23900
C264        C  0.38173904  0.21536968  0.82280394    -0.28400
C265        C  0.34930374  0.20734002  0.83580499     0.07100
C266        C  0.33850315  0.16979862  0.83832484    -0.27100
H267        H  0.44408348  0.22225644  0.79663996     0.11800
H268        H  0.47781653  0.17188107  0.77683223     0.13000
H269        H  0.32259763  0.09697654  0.84037662     0.12000
H270        H  0.35587881  0.04684166  0.82033323     0.11300
H271        H  0.40467621  0.02621965  0.79333140     0.16700
H272        H  0.48282475  0.10534426  0.76556287     0.12600
H273        H  0.39060302  0.24400655  0.82082313     0.15400
H274        H  0.31393291  0.16291199  0.84843931     0.15200
C275        C  0.19218127  0.10635826  0.87884704    -0.17700
C276        C  0.16854724  0.08137510  0.86739570    -0.19800
C277        C  0.13208172  0.09205202  0.86132993     0.20800
C278        C  0.11817224  0.12692222  0.86862068    -0.02800
C279        C  0.14199375  0.15212288  0.88006263    -0.05800
C280        C  0.17961638  0.14231584  0.88427095     0.21100
C281        C  0.12923281  0.18843764  0.88507596     0.19300
C282        C  0.09182081  0.19794539  0.88083770    -0.17300
C283        C  0.06804776  0.17278241  0.86973303    -0.19500
C284        C  0.08154342  0.13796852  0.86262407     0.20700
C285        C  0.06010043  0.11534665  0.84806876    -0.32500
C286        C  0.07518693  0.08238044  0.83896923     0.01400
C287        C  0.11031869  0.06981999  0.84661651    -0.23900
C288        C  0.20490763  0.16979885  0.89128965    -0.28400
C289        C  0.19321087  0.20703338  0.89283984     0.07100
C290        C  0.15500892  0.21567947  0.89169321    -0.27100
H291        H  0.22091126  0.09835209  0.88216826     0.11800
H292        H  0.17942629  0.05448640  0.86219921     0.13000
H293        H  0.08154987  0.22557767  0.88486479     0.12000
H294        H  0.03980359  0.18136847  0.86549902     0.11300
H295        H  0.03261627  0.12465898  0.84261788     0.16700
H296        H  0.12164650  0.04389102  0.84003551     0.12600
H297        H  0.23441629  0.16305223  0.89241631     0.15400
H298        H  0.14597101  0.24437373  0.89331420     0.15200
C299        C  0.37057259  0.29067171  0.01434840    -0.17700
C300        C  0.36850820  0.28864731  0.99006477    -0.19800
C301        C  0.34207360  0.30984981  0.97778636     0.20800
C302        C  0.31836603  0.33429815  0.99012180    -0.02800
C303        C  0.32090787  0.33683795  0.01462406    -0.05800
C304        C  0.34648878  0.31421498  0.02682941     0.21100
C305        C  0.29658956  0.36067670  0.02696334     0.19300
C306        C  0.27043772  0.38217064  0.01468804    -0.17300
C307        C  0.26753932  0.37922840  0.99051133    -0.19500
C308        C  0.29104282  0.35507605  0.97809651     0.20700
C309        C  0.28674521  0.35035509  0.95401171    -0.32500
C310        C  0.30962744  0.32541976  0.94160121     0.01400
C311        C  0.33789780  0.30594650  0.95356158    -0.23900
C312        C  0.34596227  0.31392267  0.05127762    -0.28400
C313        C  0.32052653  0.33633395  0.06369273     0.07100
C314        C  0.29719731  0.36090579  0.05138898    -0.27100
H315        H  0.39048353  0.27318358  0.02340932     0.11800
H316        H  0.38695783  0.26973104  0.98093006     0.13000
H317        H  0.25144534  0.40049363  0.02385952     0.12000
H318        H  0.24642750  0.39541691  0.98154927     0.11300
H319        H  0.26477820  0.36534403  0.94499674     0.16700
H320        H  0.35527428  0.28624719  0.94423901     0.12600
H321        H  0.36386446  0.29473833  0.06063282     0.15400
H322        H  0.27709035  0.37774006  0.06078016     0.15200
C323        C  0.84193880  0.91731860  0.11024695    -0.17700
C324        C  0.87165930  0.94122597  0.11517093    -0.19800
C325        C  0.90572999  0.92691252  0.12329684     0.20800
C326        C  0.91104842  0.88810193  0.12472152    -0.02800
C327        C  0.88118604  0.86399278  0.11956757    -0.05800
C328        C  0.84607784  0.87883312  0.11318833     0.21100
C329        C  0.88561496  0.82529852  0.12258059     0.19300
C330        C  0.92046834  0.81090453  0.12928953    -0.17300
C331        C  0.95001496  0.83487549  0.13462846    -0.19500
C332        C  0.94508610  0.87351073  0.13323403     0.20700
C333        C  0.97203997  0.89776675  0.14230478    -0.32500
C334        C  0.96469511  0.93609877  0.14341176     0.01400
C335        C  0.93306264  0.95071638  0.13219686    -0.23900
C336        C  0.81516352  0.85521367  0.11143420    -0.28400
C337        C  0.81894419  0.81707479  0.11604355     0.07100
C338        C  0.85449020  0.80198288  0.12045094    -0.27100
H339        H  0.81524684  0.92904831  0.10512494     0.11800
H340        H  0.86733952  0.97097530  0.11384826     0.13000
H341        H  0.92434040  0.78122726  0.13148495     0.12000
H342        H  0.97608668  0.82326221  0.14093591     0.11300
H343        H  0.99680058  0.88649667  0.15061395     0.16700
H344        H  0.92778403  0.98041051  0.13257600     0.12600
H345        H  0.78778869  0.86682935  0.10775992     0.15400
H346        H  0.85747885  0.77250057  0.12391724     0.15200
C347        C  0.84537898  0.58407219  0.15155890    -0.17700
C348        C  0.87459962  0.56358025  0.16159661    -0.19800
C349        C  0.88627514  0.57081530  0.18448217     0.20800
C350        C  0.86780359  0.59862869  0.19743233    -0.02800
C351        C  0.83824640  0.61926111  0.18733006    -0.05800
C352        C  0.82713924  0.61213219  0.16421940     0.21100
C353        C  0.82019807  0.64736510  0.20027615     0.19300
C354        C  0.83128355  0.65413053  0.22328158    -0.17300
C355        C  0.86019513  0.63344469  0.23333754    -0.19500
C356        C  0.87877112  0.60583842  0.22051773     0.20700
C357        C  0.90793156  0.58520985  0.23050014    -0.32500
C358        C  0.92732670  0.55775578  0.21775167     0.01400
C359        C  0.91581360  0.55053436  0.19467270    -0.23900
C360        C  0.79870200  0.63381196  0.15403614    -0.28400
C361        C  0.78150943  0.66280867  0.16660652     0.07100
C362        C  0.79202966  0.66886576  0.18986527    -0.27100
H363        H  0.83724438  0.57814964  0.13379930     0.11800
H364        H  0.88823673  0.54220453  0.15138640     0.13000
H365        H  0.81771997  0.67558254  0.23347154     0.12000
H366        H  0.86823346  0.63925801  0.25113131     0.11300
H367        H  0.91528008  0.59015838  0.24851585     0.16700
H368        H  0.92866359  0.52845082  0.18475655     0.12600
H369        H  0.79108311  0.62912020  0.13603996     0.15400
H370        H  0.77912176  0.69117111  0.19968403     0.15200
C371        C  0.85212899  0.95988906  0.85778957    -0.17700
C372        C  0.82639496  0.93505395  0.86729451    -0.19800
C373        C  0.83635155  0.89778063  0.87093094     0.20800
C374        C  0.87334475  0.88598864  0.86663517    -0.02800
C375        C  0.89927931  0.91101790  0.85703845    -0.05800
C376        C  0.88813540  0.94775326  0.85186048     0.21100
C377        C  0.93544320  0.89854125  0.85110235     0.19300
C378        C  0.94622074  0.86197099  0.85634511    -0.17300
C379        C  0.92043064  0.83708872  0.86582485    -0.19500
C380        C  0.88355438  0.84847764  0.87013706     0.20700
C381        C  0.85595256  0.82244224  0.87582074    -0.32500
C382        C  0.81835300  0.83349261  0.87747496     0.01400
C383        C  0.80918614  0.87147043  0.87672694    -0.23900
C384        C  0.91236179  0.97102794  0.83962304    -0.28400
C385        C  0.94733290  0.95787438  0.83225105     0.07100
C386        C  0.95935220  0.92216742  0.83882542    -0.27100
H387        H  0.84336138  0.98813661  0.85415129     0.11800
H388        H  0.79817140  0.94455466  0.87072444     0.13000
H389        H  0.97406850  0.85215483  0.85217230     0.12000
H390        H  0.92880542  0.80849474  0.86869819     0.11300
H391        H  0.86321563  0.79320880  0.87683905     0.16700
H392        H  0.78028719  0.88019208  0.87844199     0.12600
H393        H  0.90323438  0.99874997  0.83486721     0.15400
H394        H  0.98658814  0.91210726  0.83344953     0.15200
C395        C  0.86579979  0.59248685  0.85110863    -0.17700
C396        C  0.89328473  0.56957140  0.84122606    -0.19800
C397        C  0.89956939  0.56970382  0.81714263     0.20800
C398        C  0.87753851  0.59301585  0.80293170    -0.02800
C399        C  0.84978095  0.61624866  0.81291846    -0.05800
C400        C  0.84396618  0.61605216  0.83713472     0.21100
C401        C  0.82813773  0.63990525  0.79868088     0.19300
C402        C  0.83409694  0.63975836  0.77459264    -0.17300
C403        C  0.86126489  0.61654970  0.76472011    -0.19500
C404        C  0.88324230  0.59320815  0.77873755     0.20700
C405        C  0.91079480  0.57013873  0.76893723    -0.32500
C406        C  0.93360189  0.54696082  0.78283298     0.01400
C407        C  0.92740312  0.54693090  0.80709059    -0.23900
C408        C  0.81687565  0.63979474  0.84697021    -0.28400
C409        C  0.79560047  0.66408805  0.83295793     0.07100
C410        C  0.80132128  0.66365570  0.80876113    -0.27100
H411        H  0.86177362  0.59192061  0.86974474     0.11800
H412        H  0.90975969  0.55181760  0.85247174     0.13000
H413        H  0.81778990  0.65769024  0.76336653     0.12000
H414        H  0.86524934  0.61704185  0.74607503     0.11300
H415        H  0.91458288  0.57011413  0.75025964     0.16700
H416        H  0.94340132  0.52894306  0.81832431     0.12600
H417        H  0.81303763  0.64000857  0.86563329     0.15400
H418        H  0.78537025  0.68230512  0.79778215     0.15200
C419        C  0.63273971  0.93092234  0.77904317    -0.17700
C420        C  0.65496764  0.90201109  0.78771885    -0.19800
C421        C  0.63982178  0.87520214  0.80270159     0.20800
C422        C  0.60195737  0.87773689  0.80923241    -0.02800
C423        C  0.57947886  0.90710215  0.80051834    -0.05800
C424        C  0.59488113  0.93366708  0.78517502     0.21100
C425        C  0.54139276  0.90923711  0.80661283     0.19300
C426        C  0.52629202  0.88251496  0.82171038    -0.17300
C427        C  0.54863275  0.85367470  0.83050785    -0.19500
C428        C  0.58652234  0.85083508  0.82430441     0.20700
C429        C  0.60937050  0.82198108  0.83310502    -0.32500
C430        C  0.64750886  0.81971905  0.82698681     0.01400
C431        C  0.66212952  0.84626038  0.81146694    -0.23900
C432        C  0.57176583  0.96123950  0.77527537    -0.28400
C433        C  0.53333464  0.96215092  0.78022227     0.07100
C434        C  0.51869001  0.93684294  0.79655056    -0.27100
H435        H  0.64508491  0.95089066  0.76726723     0.11800
H436        H  0.68406946  0.90052174  0.78259742     0.13000
H437        H  0.49702980  0.88366538  0.82651823     0.12000
H438        H  0.53618405  0.83344095  0.84206309     0.11300
H439        H  0.59776531  0.80200336  0.84517263     0.16700
H440        H  0.69139435  0.84507320  0.80665425     0.12600
H441        H  0.58297511  0.97994872  0.76229144     0.15400
H442        H  0.48890414  0.93700718  0.80007924     0.15200
C443        C  0.66765601  0.80072239  0.00969433    -0.17700
C444        C  0.66925969  0.80106852  0.98551807    -0.19800
C445        C  0.67532944  0.76799162  0.97317436     0.20800
C446        C  0.67812759  0.73390079  0.98513534    -0.02800
C447        C  0.67658981  0.73355994  0.00963345    -0.05800
C448        C  0.67219648  0.76730412  0.02186475     0.21100
C449        C  0.68141869  0.69989062  0.02189328     0.19300
C450        C  0.68593382  0.66661272  0.00935511    -0.17300
C451        C  0.68735420  0.66693770  0.98499270    -0.19500
C452        C  0.68433875  0.70055214  0.97270702     0.20700
C453        C  0.68925337  0.70184318  0.94841401    -0.32500
C454        C  0.68870496  0.73622565  0.93674733     0.01400
C455        C  0.68050798  0.76883800  0.94917582    -0.23900
C456        C  0.67461921  0.76752968  0.04604726    -0.28400
C457        C  0.68196354  0.73468876  0.05837537     0.07100
C458        C  0.68376409  0.70058448  0.04635671    -0.27100
H459        H  0.66409423  0.82678736  0.01890567     0.11800
H460        H  0.66686883  0.82739677  0.97650357     0.13000
H461        H  0.68946854  0.64045449  0.01840591     0.12000
H462        H  0.69191145  0.64101841  0.97579799     0.11300
H463        H  0.69572118  0.67663227  0.93888350     0.16700
H464        H  0.67969380  0.79534558  0.94022037     0.12600
H465        H  0.67282416  0.79379870  0.05527559     0.15400
H466        H  0.68955538  0.67519089  0.05582066     0.15200
C467        C  0.32309423  0.12168531  0.18604374    -0.17700
C468        C  0.34161736  0.08986057  0.19400930    -0.19800
C469        C  0.37942326  0.09149792  0.20054423     0.20800
C470        C  0.39891482  0.12543510  0.19856774    -0.02800
C471        C  0.38021433  0.15768574  0.19030434    -0.05800
C472        C  0.34205739  0.15575327  0.18426273     0.21100
C473        C  0.39958541  0.19176183  0.18814398     0.19300
C474        C  0.43763628  0.19304315  0.19434669    -0.17300
C475        C  0.45603612  0.16119955  0.20275958    -0.19500
C476        C  0.43692134  0.12721895  0.20505803     0.20700
C477        C  0.45469262  0.09537936  0.21434210    -0.32500
C478        C  0.43494810  0.06179515  0.21762672     0.01400
C479        C  0.39759176  0.06000920  0.20964215    -0.23900
C480        C  0.32347194  0.18771648  0.17629647    -0.28800
C481        C  0.34233176  0.22194776  0.17367254     0.07100
C482        C  0.38063639  0.22366741  0.17965777    -0.27100
H483        H  0.29381721  0.11964834  0.18130748     0.11800
H484        H  0.32617993  0.06403704  0.19537051     0.13000
H485        H  0.45316507  0.21878148  0.19282573     0.12000
H486        H  0.48525184  0.16324564  0.20764665     0.11300
H487        H  0.48347560  0.09744847  0.21983211     0.16700
H488        H  0.38208726  0.03425111  0.21103256     0.12600
H489        H  0.29422757  0.18553650  0.17147390     0.15400
H490        H  0.39570281  0.24957067  0.17751588     0.15200
C491        C  0.52229546  0.88525425  0.17012683    -0.17700
C492        C  0.54498294  0.85689449  0.16118691    -0.19800
C493        C  0.58171364  0.85214818  0.16929954     0.20800
C494        C  0.59580100  0.87654401  0.18647211    -0.02800
C495        C  0.57290792  0.90533840  0.19544656    -0.05800
C496        C  0.53590648  0.90950530  0.18731699     0.21100
C497        C  0.58671823  0.92932805  0.21294157     0.19300
C498        C  0.62344624  0.92447781  0.22108642    -0.17300
C499        C  0.64623031  0.89623394  0.21203154    -0.19500
C500        C  0.63266222  0.87207754  0.19476200     0.20700
C501        C  0.65541721  0.84381525  0.18548298    -0.32500
C502        C  0.64179952  0.81964902  0.16810099     0.01400
C503        C  0.60468423  0.82374377  0.16034804    -0.23900
C504        C  0.51263886  0.93674758  0.19722849    -0.28400
C505        C  0.52570083  0.95993863  0.21521581     0.07100
C506        C  0.56305215  0.95662372  0.22264127    -0.27100
H507        H  0.49391103  0.88799584  0.16373510     0.11800
H508        H  0.53371242  0.83854596  0.14797368     0.13000
H509        H  0.63451136  0.94241316  0.23458735     0.12000
H510        H  0.67446139  0.89318540  0.21862335     0.11300
H511        H  0.68399628  0.84102294  0.19154611     0.16700
H512        H  0.59404158  0.80559314  0.14681701     0.12600
H513        H  0.48354367  0.93846077  0.19198568     0.15400
H514        H  0.57281077  0.97349208  0.23705671     0.15200
C515        C  0.93535146  0.35549117  0.28404089    -0.17700
C516        C  0.91116482  0.32890409  0.29350590    -0.19800
C517        C  0.87878412  0.33984694  0.30550241     0.20800
C518        C  0.87091603  0.37798236  0.30828110    -0.02800
C519        C  0.89559746  0.40489713  0.29889574    -0.05800
C520        C  0.92775686  0.39360121  0.28644632     0.21100
C521        C  0.88749833  0.44303876  0.30138395     0.19300
C522        C  0.85537490  0.45399321  0.31365775    -0.17300
C523        C  0.83091451  0.42736781  0.32287660    -0.19500
C524        C  0.83814768  0.38921043  0.32011628     0.20700
C525        C  0.81334365  0.36212385  0.32897823    -0.32500
C526        C  0.82136748  0.32394290  0.32655525     0.01400
C527        C  0.85420196  0.31325480  0.31473970    -0.23900
C528        C  0.95066493  0.42046453  0.27568093    -0.28400
C529        C  0.94140857  0.45840028  0.27690458     0.07100
C530        C  0.91061325  0.46946097  0.29059597    -0.27100
H531        H  0.95977131  0.34619803  0.27455126     0.11800
H532        H  0.91762242  0.29967847  0.29123369     0.13000
H533        H  0.84876505  0.48322211  0.31575655     0.12000
H534        H  0.80613747  0.43665350  0.33200592     0.11300
H535        H  0.78834252  0.37070977  0.33815437     0.16700
H536        H  0.86063915  0.28397014  0.31263916     0.12600
H537        H  0.97401231  0.41171445  0.26500132     0.15400
H538        H  0.90339459  0.49871077  0.29170173     0.15200
C539        C  0.84103501  0.07117933  0.25505245    -0.17700
C540        C  0.81739992  0.08896222  0.27084315    -0.19800
C541        C  0.83215335  0.10632188  0.29068126     0.20800
C542        C  0.87091061  0.10476013  0.29511809    -0.02800
C543        C  0.89480941  0.08706646  0.27907643    -0.05800
C544        C  0.87978105  0.07062822  0.25881487     0.21100
C545        C  0.93376708  0.08681468  0.28295462     0.19300
C546        C  0.94834155  0.10298207  0.30325219    -0.17300
C547        C  0.92460536  0.12045298  0.31920534    -0.19500
C548        C  0.88593463  0.12212070  0.31509568     0.20700
C549        C  0.86224510  0.14232401  0.32994164    -0.32500
C550        C  0.82398621  0.14588253  0.32471292     0.01400
C551        C  0.80899955  0.12670174  0.30554179    -0.23900
C552        C  0.90379381  0.05461619  0.24242863    -0.28400
C553        C  0.94267552  0.05529180  0.24583699     0.07100
C554        C  0.95748272  0.07104505  0.26625641    -0.27100
H555        H  0.82907357  0.05852233  0.23964584     0.11800
H556        H  0.78764888  0.08983308  0.26728238     0.13000
H557        H  0.97816767  0.10272493  0.30657440     0.12000
H558        H  0.93661832  0.13345465  0.33448584     0.11300
H559        H  0.87393658  0.15710795  0.34469004     0.16700
H560        H  0.77944379  0.12905068  0.30155359     0.12600
H561        H  0.89223593  0.04225900  0.22679656     0.15400
H562        H  0.98744918  0.07111931  0.26912656     0.15200
C563        C  0.60437522  0.08814336  0.33933754    -0.17700
C564        C  0.57998831  0.06326284  0.32836280    -0.19800
C565        C  0.56677266  0.07037936  0.30584323     0.20800
C566        C  0.57808375  0.10307094  0.29434577    -0.02800
C567        C  0.60282467  0.12833100  0.30546561    -0.05800
C568        C  0.61612366  0.12061791  0.32801210     0.21100
C569        C  0.61471079  0.16087417  0.29392946     0.19300
C570        C  0.60120017  0.16797873  0.27141730    -0.17300
C571        C  0.57668263  0.14295855  0.26041967    -0.19500
C572        C  0.56509143  0.11025076  0.27166471     0.20700
C573        C  0.54075936  0.08469635  0.26072274    -0.32500
C574        C  0.52847457  0.05224445  0.27221255     0.01400
C575        C  0.54245860  0.04527507  0.29474396    -0.23900
C576        C  0.64166620  0.14491470  0.33869196    -0.28400
C577        C  0.65470208  0.17697821  0.32723570     0.07100
C578        C  0.64052237  0.18509372  0.30489547    -0.27100
H579        H  0.61433232  0.08178534  0.35666472     0.11800
H580        H  0.57154139  0.03833646  0.33749225     0.13000
H581        H  0.60985026  0.19276741  0.26221465     0.12000
H582        H  0.56688932  0.14914349  0.24302540     0.11300
H583        H  0.53125481  0.09058813  0.24332717     0.16700
H584        H  0.53481098  0.02002449  0.30375457     0.12600
H585        H  0.65228980  0.13816354  0.35581681     0.15400
H586        H  0.65049841  0.20945509  0.29575348     0.15200
C587        C  0.88643267  0.44176520  0.67494817    -0.17700
C588        C  0.85942424  0.41909380  0.66434654    -0.19800
C589        C  0.85091030  0.38390508  0.67346970     0.20800
C590        C  0.87044202  0.37126073  0.69329550    -0.02800
C591        C  0.89799819  0.39407746  0.70392153    -0.05800
C592        C  0.90565011  0.42969659  0.69485101     0.21100
C593        C  0.91700557  0.38173192  0.72402383     0.19300
C594        C  0.90886590  0.34633466  0.73296545    -0.17300
C595        C  0.88178064  0.32370857  0.72238712    -0.19500
C596        C  0.86215725  0.33602728  0.70267412     0.20700
C597        C  0.83459840  0.31363606  0.69212892    -0.32500
C598        C  0.81510078  0.32573180  0.67216291     0.01400
C599        C  0.82342887  0.36111976  0.66304270    -0.23900
C600        C  0.93098898  0.45328944  0.70646158    -0.28400
C601        C  0.94879282  0.44186149  0.72706001     0.07100
C602        C  0.94240178  0.40567098  0.73541875    -0.27100
H603        H  0.89193590  0.46902369  0.66773419     0.11800
H604        H  0.84490898  0.42927561  0.64910105     0.13000
H605        H  0.92309812  0.33631910  0.74836106     0.12000
H606        H  0.87593759  0.29663946  0.72977242     0.11300
H607        H  0.82890067  0.28633203  0.69923925     0.16700
H608        H  0.80906925  0.37064208  0.64756611     0.12600
H609        H  0.93514211  0.48147727  0.70031826     0.15400
H610        H  0.95526813  0.39713957  0.75162320     0.15200
C611        C  0.95526114  0.16241878  0.69397819    -0.17700
C612        C  0.93368830  0.17963562  0.67682727    -0.19800
C613        C  0.90133345  0.16227510  0.66827645     0.20800
C614        C  0.89158146  0.12645560  0.67618490    -0.02800
C615        C  0.91336718  0.10908159  0.69341616    -0.05800
C616        C  0.94484344  0.12755927  0.70274952     0.21100
C617        C  0.90264538  0.07399161  0.70204518     0.19300
C618        C  0.87122105  0.05591462  0.69275728    -0.17300
C619        C  0.84936873  0.07333276  0.67585405    -0.19500
C620        C  0.85880549  0.10894637  0.66792207     0.20700
C621        C  0.83460682  0.12847629  0.65325896    -0.32500
C622        C  0.84261094  0.16535278  0.64707551     0.01400
C623        C  0.87705882  0.18124709  0.65336126    -0.23900
C624        C  0.96465075  0.11133613  0.72114446    -0.28400
C625        C  0.95331769  0.07694736  0.73029340     0.07100
C626        C  0.92280687  0.05809819  0.72032456    -0.27100
H627        H  0.97952302  0.17681284  0.70082416     0.11800
H628        H  0.94155724  0.20709879  0.67086096     0.13000
H629        H  0.86287308  0.02880889  0.69909222     0.12000
H630        H  0.82441114  0.05948131  0.66955865     0.11300
H631        H  0.80815227  0.11607929  0.64822869     0.16700
H632        H  0.88332758  0.20971356  0.64855521     0.12600
H633        H  0.98849197  0.12573519  0.72856350     0.15400
H634        H  0.91423925  0.03131422  0.72709238     0.15200
C635        C  0.58558426  0.14302517  0.73137812    -0.17700
C636        C  0.60964296  0.16789340  0.72006505    -0.19800
C637        C  0.62217858  0.16062407  0.69740523     0.20800
C638        C  0.61030107  0.12778688  0.68610382    -0.02800
C639        C  0.58591499  0.10266323  0.69754695    -0.05800
C640        C  0.57352260  0.11027975  0.72029882     0.21100
C641        C  0.57410316  0.06987775  0.68624487     0.19300
C642        C  0.58682588  0.06240346  0.66364457    -0.17300
C643        C  0.61102289  0.08711765  0.65237327    -0.19500
C644        C  0.62293940  0.11990869  0.66343320     0.20700
C645        C  0.64752040  0.14471037  0.65229992    -0.32500
C646        C  0.65966778  0.17761748  0.66339382     0.01400
C647        C  0.64661827  0.18536821  0.68597254    -0.23900
C648        C  0.54922316  0.08519606  0.73155532    -0.28400
C649        C  0.53660591  0.05253388  0.72035788     0.07100
C650        C  0.54980980  0.04512477  0.69767333    -0.27100
H651        H  0.57638336  0.14944634  0.74884030     0.11800
H652        H  0.61849166  0.19286100  0.72908893     0.13000
H653        H  0.57806863  0.03736466  0.65465555     0.12000
H654        H  0.62044586  0.08054561  0.63497468     0.11300
H655        H  0.65754672  0.13812794  0.63502429     0.16700
H656        H  0.65613700  0.21023001  0.69486017     0.12600
H657        H  0.53984881  0.09163862  0.74890394     0.15400
H658        H  0.54160854  0.01981416  0.68882595     0.15200
C659        C  0.80157925  0.20734074  0.50832702    -0.17700
C660        C  0.80133480  0.20475331  0.48412530    -0.19800
C661        C  0.77452469  0.22405178  0.47103107     0.20800
C662        C  0.74757745  0.24614615  0.48246551    -0.02800
C663        C  0.74766584  0.24857119  0.50703607    -0.05800
C664        C  0.77487583  0.22909361  0.51990466     0.21100
C665        C  0.72056706  0.27027314  0.51869634     0.19300
C666        C  0.69375040  0.28954107  0.50548763    -0.17300
C667        C  0.69383088  0.28735988  0.48111018    -0.19500
C668        C  0.72063429  0.26573526  0.46937383     0.20700
C669        C  0.72111717  0.26335730  0.44485637    -0.32500
C670        C  0.74806258  0.24133470  0.43331683     0.01400
C671        C  0.77443390  0.22166254  0.44670182    -0.23900
C672        C  0.77485390  0.23124066  0.54416231    -0.28400
C673        C  0.74774621  0.25218971  0.55616820     0.07100
C674        C  0.72068766  0.27193917  0.54326473    -0.27100
H675        H  0.82261831  0.19216104  0.51801464     0.11800
H676        H  0.82222472  0.18767655  0.47563196     0.13000
H677        H  0.67266503  0.30633659  0.51401113     0.12000
H678        H  0.67283954  0.30258801  0.47142288     0.11300
H679        H  0.70054709  0.27854900  0.43479359     0.16700
H680        H  0.79531950  0.20463484  0.43814413     0.12600
H681        H  0.79590830  0.21589684  0.55375169     0.15400
H682        H  0.69963650  0.28813578  0.55227119     0.15200
C683        C  0.39228812  0.87840854  0.34184794    -0.17700
C684        C  0.41268448  0.90710173  0.33139812    -0.19800
C685        C  0.40764499  0.91554763  0.30779090     0.20800
C686        C  0.38186198  0.89462635  0.29459321    -0.02800
C687        C  0.36124289  0.86554572  0.30515114    -0.05800
C688        C  0.36638288  0.85752826  0.32892316     0.21100
C689        C  0.33518882  0.84484664  0.29199287     0.19300
C690        C  0.33044025  0.85301862  0.26832589    -0.17300
C691        C  0.35106914  0.88156204  0.25785517    -0.19500
C692        C  0.37675381  0.90264330  0.27085595     0.20700
C693        C  0.39777930  0.93116742  0.26044075    -0.32500
C694        C  0.42412613  0.95219146  0.27328106     0.01400
C695        C  0.42846483  0.94407373  0.29715911    -0.23900
C696        C  0.34482863  0.82954207  0.33952198    -0.28400
C697        C  0.31768981  0.80967872  0.32678083     0.07100
C698        C  0.31365359  0.81708673  0.30285653    -0.27100
H699        H  0.39660975  0.87271811  0.36012027     0.11800
H700        H  0.43243830  0.92274932  0.34183499     0.13000
H701        H  0.31059154  0.83744830  0.25791515     0.12000
H702        H  0.34683437  0.88722444  0.23956685     0.11300
H703        H  0.39442979  0.93644610  0.24202535     0.16700
H704        H  0.44887423  0.95856392  0.30758785     0.12600
H705        H  0.34807251  0.82436624  0.35794832     0.15400
H706        H  0.29278516  0.80216610  0.29283602     0.15200
C707        C  0.04617138  0.85598831  0.28732360    -0.17700
C708        C  0.06229051  0.83578564  0.30548278    -0.19800
C709        C  0.09641746  0.84714937  0.31524707     0.20800
C710        C  0.11371323  0.88002416  0.30730593    -0.02800
C711        C  0.09776876  0.90006395  0.28877223    -0.05800
C712        C  0.06410091  0.88766461  0.27854811     0.21100
C713        C  0.11618064  0.93175187  0.27997961     0.19300
C714        C  0.14944946  0.94404623  0.29039182    -0.17300
C715        C  0.16513452  0.92431069  0.30887465    -0.19500
C716        C  0.14791230  0.89186081  0.31709266     0.20700
C717        C  0.16557648  0.86971040  0.33379285    -0.32500
C718        C  0.15021346  0.83522752  0.34014570     0.01400
C719        C  0.11476740  0.82497540  0.33169851    -0.23900
C720        C  0.04930897  0.90678535  0.25948229    -0.28400
C721        C  0.06800719  0.93781856  0.25033577     0.07100
C722        C  0.10128997  0.95028663  0.26073025    -0.27100
H723        H  0.02015964  0.84630664  0.27975751     0.11800
H724        H  0.04856072  0.81073225  0.31147901     0.13000
H725        H  0.16371060  0.96851660  0.28395532     0.12000
H726        H  0.19136167  0.93377806  0.31625892     0.11300
H727        H  0.19288147  0.87779964  0.34027766     0.16700
H728        H  0.10269442  0.79851415  0.33667012     0.12600
H729        H  0.02342327  0.89728977  0.25163400     0.15400
H730        H  0.11549577  0.97456733  0.25394139     0.15200
C731        C  0.15597755  0.61896324  0.27369667    -0.17700
C732        C  0.12817600  0.59971828  0.26141417    -0.19800
C733        C  0.09771579  0.58383406  0.27310711     0.20800
C734        C  0.09572138  0.58659529  0.29752832    -0.02800
C735        C  0.12366103  0.60635271  0.30992739    -0.05800
C736        C  0.15370413  0.62296294  0.29791886     0.21100
C737        C  0.12073434  0.61066983  0.33420853     0.19300
C738        C  0.09075333  0.59396112  0.34597378    -0.17300
C739        C  0.06334683  0.57404967  0.33374186    -0.19500
C740        C  0.06523766  0.57060019  0.30948721     0.20700
C741        C  0.03681286  0.55226800  0.29692785    -0.32500
C742        C  0.03819813  0.55042701  0.27258642     0.01400
C743        C  0.06881754  0.56597830  0.26080607    -0.23900
C744        C  0.17985601  0.64485846  0.31013108    -0.28400
C745        C  0.17573804  0.65134766  0.33411864     0.07100
C746        C  0.14674409  0.63310331  0.34612474    -0.27100
H747        H  0.17879633  0.63148734  0.26417891     0.11800
H748        H  0.13024444  0.59772303  0.24267542     0.13000
H749        H  0.08810358  0.59688766  0.36461923     0.12000
H750        H  0.04023494  0.56193964  0.34323670     0.11300
H751        H  0.01306174  0.54044409  0.30596418     0.16700
H752        H  0.06982474  0.56448133  0.24200345     0.12600
H753        H  0.20184506  0.65892649  0.30067578     0.15400
H754        H  0.14331131  0.63783375  0.36459180     0.15200
C755        C  0.35992003  0.88312491  0.74058894    -0.17700
C756        C  0.33957487  0.85323692  0.73135299    -0.19800
C757        C  0.34417409  0.84255231  0.70806155     0.20800
C758        C  0.36963434  0.86223430  0.69398827    -0.02800
C759        C  0.38991570  0.89272962  0.70327940    -0.05800
C760        C  0.38506464  0.90313020  0.72667954     0.21100
C761        C  0.41522095  0.91256756  0.68920300     0.19300
C762        C  0.41997024  0.90171938  0.66594221    -0.17300
C763        C  0.39986749  0.87163356  0.65673333    -0.19500
C764        C  0.37463117  0.85166371  0.67058939     0.20700
C765        C  0.35374516  0.82189723  0.66131479    -0.32500
C766        C  0.32741002  0.80276113  0.67500075     0.01400
C767        C  0.32321072  0.81308912  0.69849264    -0.23900
C768        C  0.40589142  0.93286688  0.73591271    -0.28400
C769        C  0.43182837  0.95279144  0.72223238     0.07100
C770        C  0.43592143  0.94235214  0.69867847    -0.27100
H771        H  0.35592186  0.89064147  0.75864268     0.11800
H772        H  0.32017177  0.83849587  0.74244465     0.13000
H773        H  0.43931554  0.91650497  0.65483504     0.12000
H774        H  0.40401205  0.86403719  0.63870703     0.11300
H775        H  0.35686839  0.81467841  0.64313902     0.16700
H776        H  0.30279922  0.79890526  0.70917937     0.12600
H777        H  0.40290098  0.93981536  0.75414170     0.15400
H778        H  0.45616364  0.95593852  0.68772841     0.15200
C779        C  0.06227868  0.85791514  0.71572661    -0.17700
C780        C  0.07970186  0.83302845  0.70064389    -0.19800
C781        C  0.11215937  0.84353216  0.68874558     0.20800
C782        C  0.12682824  0.87971077  0.69162530    -0.02800
C783        C  0.10928731  0.90480570  0.70688203    -0.05800
C784        C  0.07713851  0.89358002  0.71911669     0.21100
C785        C  0.12431306  0.94076094  0.71026401     0.19300
C786        C  0.15642256  0.95143020  0.69800317    -0.17300
C787        C  0.17397712  0.92640786  0.68291221    -0.19500
C788        C  0.15959408  0.89040988  0.67979911     0.20700
C789        C  0.17813089  0.86444357  0.66577613    -0.32500
C790        C  0.16447173  0.82791457  0.66370604     0.01400
C791        C  0.13097160  0.81797808  0.67471397    -0.23900
C792        C  0.06058818  0.91796876  0.73482124    -0.28400
C793        C  0.07557302  0.95355407  0.73857766     0.07100
C794        C  0.10720404  0.96508970  0.72608872    -0.27100
H795        H  0.03747966  0.84909755  0.72498890     0.11800
H796        H  0.06813861  0.80536133  0.69857250     0.13000
H797        H  0.16825469  0.97892898  0.70032903     0.12000
H798        H  0.19911434  0.93502224  0.67393429     0.11300
H799        H  0.20413827  0.87213436  0.65742382     0.16700
H800        H  0.12038757  0.78981223  0.67320916     0.12600
H801        H  0.03593517  0.90904647  0.74421621     0.15400
H802        H  0.11863506  0.99267699  0.72883777     0.15200
C803        C  0.16632701  0.59516158  0.72479207    -0.17700
C804        C  0.13946283  0.57392560  0.73656319    -0.19800
C805        C  0.10529425  0.56480185  0.72588701     0.20800
C806        C  0.09848661  0.57665147  0.70291247    -0.02800
C807        C  0.12573423  0.59797450  0.69097904    -0.05800
C808        C  0.15968308  0.60765381  0.70204485     0.21100
C809        C  0.11850358  0.61047839  0.66822020     0.19300
C810        C  0.08455954  0.60097689  0.65741309    -0.17300
C811        C  0.05758757  0.58007120  0.66922606    -0.19500
C812        C  0.06403798  0.56808121  0.69206572     0.20700
C813        C  0.03632673  0.54855726  0.70443473    -0.32500
C814        C  0.04272182  0.53721716  0.72742996     0.01400
C815        C  0.07743449  0.54496751  0.73794683    -0.23900
C816        C  0.18573554  0.63063125  0.69047996    -0.28400
C817        C  0.17810211  0.64436258  0.66803574     0.07100
C818        C  0.14467976  0.63333310  0.65692889    -0.27100
H819        H  0.19214278  0.60224408  0.73362422     0.11800
H820        H  0.14521226  0.56508781  0.75418961     0.13000
H821        H  0.07856618  0.61029164  0.63991770     0.12000
H822        H  0.03141931  0.57369794  0.66057778     0.11300
H823        H  0.00944558  0.54294189  0.69641988     0.16700
H824        H  0.08219080  0.53659448  0.75579255     0.12600
H825        H  0.21109179  0.63916003  0.69934549     0.15400
H826        H  0.13831926  0.64369701  0.63970541     0.15200
C827        C  0.19117212  0.78623476  0.49097886    -0.17700
C828        C  0.19225178  0.78527300  0.51521526    -0.19800
C829        C  0.21933853  0.76397776  0.52679794     0.20800
C830        C  0.24591053  0.74372349  0.51386239    -0.02800
C831        C  0.24489875  0.74480614  0.48927310    -0.05800
C832        C  0.21722723  0.76600707  0.47786611     0.21100
C833        C  0.27125960  0.72450357  0.47613701     0.19300
C834        C  0.29868794  0.70364321  0.48784521    -0.17300
C835        C  0.29961844  0.70247808  0.51223326    -0.19500
C836        C  0.27318808  0.72220608  0.52547319     0.20700
C837        C  0.27326304  0.72068273  0.55002485    -0.32500
C838        C  0.24649172  0.74068696  0.56301523     0.01400
C839        C  0.21994205  0.76245165  0.55110216    -0.23900
C840        C  0.21578067  0.76651483  0.45354696    -0.28400
C841        C  0.24154312  0.74611883  0.44014667     0.07100
C842        C  0.26945045  0.72526546  0.45161512    -0.27100
H843        H  0.16979385  0.80270992  0.48247512     0.11800
H844        H  0.17168629  0.80102831  0.52491978     0.13000
H845        H  0.31930336  0.68797659  0.47812969     0.12000
H846        H  0.32092995  0.68593361  0.52074387     0.11300
H847        H  0.29400915  0.70399263  0.55896652     0.16700
H848        H  0.19921317  0.77805751  0.56078442     0.12600
H849        H  0.19420716  0.78274430  0.44502786     0.15400
H850        H  0.28954176  0.70953631  0.44150969     0.15200
loop_ 
_geom_bond_atom_site_label_1 
_geom_bond_atom_site_label_2 
_geom_bond_distance 
_geom_bond_site_symmetry_2 
_ccdc_geom_bond_type 
O1            C4   1.265       .  A
O1           Cd6   2.441       .  S
C2           O11   1.262       .  A
C2            O7   1.263       .  A
C2          C790   1.469       .  S
O3            C9   1.271       .  A
O3           Cd6   2.551       .  S
C4           O12   1.271       .  A
C4          C838   1.493       .  S
C5           O10   1.265       .  A
C5            O8   1.268       .  A
C5          C766   1.493       .  S
Cd6          O13   2.461       .  S
Cd6          O12   2.545       .  S
Cd6          O11   2.438       .  S
Cd6           O7   2.456       .  S
Cd6          O10   2.486       .  S
Cd6           O8   2.509       .  S
C9           O13   1.263       .  A
C9          C817   1.496       .  S
O14          C17   1.266       .  A
O14         Cd19   2.448       .  S
C15          O24   1.263       .  A
C15          O20   1.262       .  A
C15         C718   1.474       .  S
O16          C22   1.268       .  A
O16         Cd19   2.509       .  S
C17          O25   1.270       .  A
C17         C841   1.492       .  S
C18          O23   1.268       .  A
C18          O21   1.264       .  A
C18         C745   1.491       .  S
Cd19         O26   2.491       .  S
Cd19         O25   2.530       .  S
Cd19         O24   2.469       .  S
Cd19         O20   2.460       .  S
Cd19         O23   2.521       .  S
Cd19         O21   2.479       .  S
C22          O26   1.265       .  A
C22         C697   1.493       .  S
O27          C30   1.262       .  A
O27         Cd32   2.411       .  S
C28          O37   1.264       .  A
C28          O33   1.263       .  A
C28         C622   1.467       .  S
O29          C35   1.271       .  A
O29         Cd32   2.541       .  S
C30          O38   1.272       .  A
C30         C673   1.492       .  S
C31          O36   1.270       .  A
C31          O34   1.263       .  A
C31         C646   1.496       .  S
Cd32         O39   2.472       .  S
Cd32         O38   2.561       .  S
Cd32         O37   2.434       .  S
Cd32         O33   2.440       .  S
Cd32         O36   2.543       .  S
Cd32         O34   2.475       .  S
C35          O39   1.264       .  A
C35         C598   1.497       .  S
O40          C43   1.266       .  A
O40         Cd45   2.483       .  S
C41          O50   1.269       .  A
C41          O46   1.263       .  A
C41         C550   1.477       .  S
O42          C48   1.271       .  A
O42         Cd45   2.551       .  S
C43          O51   1.268       .  A
C43         C670   1.496       .  S
C44          O49   1.260       .  A
C44          O47   1.272       .  A
C44         C526   1.494       .  S
Cd45         O52   2.461       .  S
Cd45         O51   2.539       .  S
Cd45         O50   2.504       .  S
Cd45         O46   2.419       .  S
Cd45         O49   2.449       .  S
Cd45         O47   2.573       .  S
C48          O52   1.266       .  A
C48         C577   1.497       .  S
C53          C54   1.523       .  S
C53          C59   1.535   1_565  S
C53          C57   1.547   1_565  S
C53         C694   1.542       .  S
C54          H61   1.088       .  S
C54          C55   1.357       .  D
C55          C56   1.554   1_565  S
C55         C505   1.487       .  S
C56          C60   1.562       .  S
C56          C58   1.553       .  S
C56          H62   1.108       .  S
C57          H63   1.080       .  S
C57          C58   1.377       .  D
C58         C574   1.512       .  S
C59          H64   1.085       .  S
C59          C60   1.376       .  D
C60         C478   1.513       .  S
O65          C68   1.262       .  A
O65         Cd70   2.401       .  S
C66          O75   1.262       .  A
C66          O71   1.263       .  A
C66         C382   1.472       .  S
O67          C73   1.268       .  A
O67         Cd70   2.513       .  S
C68          O76   1.269       .  A
C68         C454   1.477       .  S
C69          O74   1.264       .  A
C69          O72   1.270       .  A
C69         C430   1.495       .  S
Cd70         O77   2.495       .  S
Cd70         O76   2.527       .  S
Cd70         O75   2.448       .  S
Cd70         O71   2.471       .  S
Cd70         O74   2.458       .  S
Cd70         O72   2.547       .  S
C73          O77   1.265       .  A
C73         C409   1.494       .  S
O78          C81   1.270       .  A
O78         Cd83   2.527       .  S
C79          O88   1.263       .  A
C79          O84   1.263       .  A
C79         C337   1.469       .  S
O80          C86   1.263       .  A
O80         Cd83   2.458       .  S
C81          O89   1.263       .  A
C81         C457   1.477       .  S
C82          O87   1.267       .  A
C82          O85   1.265       .  A
C82         C361   1.486       .  S
Cd83         O90   2.515       .  S
Cd83         O89   2.401       .  S
Cd83         O88   2.444       .  S
Cd83         O84   2.450       .  S
Cd83         O87   2.496       .  S
Cd83         O85   2.465       .  S
C86          O90   1.269       .  A
C86         C502   1.488       .  S
O91          C94   1.267       .  A
O91         Cd96   2.523       .  S
C92         O101   1.264       .  A
C92          O97   1.261       .  A
C92         C289   1.467       .  S
O93          C99   1.265       .  A
O93         Cd96   2.499       .  S
C94         O102   1.262       .  A
C94         C310   1.487       .  S
C95         O100   1.275       .  A
C95          O98   1.262       .  A
C95         C265   1.500       .  S
Cd96        O103   2.537       .  S
Cd96        O102   2.467       .  S
Cd96        O101   2.447       .  S
Cd96         O97   2.447       .  S
Cd96        O100   2.584       .  S
Cd96         O98   2.430       .  S
C99         O103   1.269       .  A
C99         C241   1.498       .  S
O104        C107   1.262       .  A
O104       Cd109   2.457       .  S
C105        O114   1.267       .  A
C105        O110   1.259       .  A
C105        C313   1.485       .  S
O106        C112   1.275       .  A
O106       Cd109   2.582       .  S
C107        O115   1.262       .  A
C107        C217   1.465       .  S
C108        O113   1.263       .  A
C108        O111   1.274       .  A
C108        C481   1.502       .  S
Cd109       O116   2.446       .  S
Cd109       O115   2.417       .  S
Cd109       O114   2.536       .  S
Cd109       O110   2.471       .  S
Cd109       O113   2.444       .  S
Cd109       O111   2.578       .  S
C112        O116   1.263       .  A
C112        C193   1.502       .  S
O117        C120   1.267       .  A
O117       Cd122   2.433   1_565  S
C118        O127   1.265   1_655  A
C118        O123   1.266       .  A
C118        C553   1.474       .  S
O119        C125   1.264       .  A
O119       Cd122   2.425       .  S
C120        O128   1.266       .  A
C120        C721   1.470       .  S
C121        O126   1.266   1_655  A
C121        O124   1.264       .  A
C121        C334   1.468       .  S
Cd122       O129   2.428       .  S
Cd122       O128   2.426   1_545  S
Cd122       O127   2.446       .  S
Cd122       O123   2.451   1_455  S
Cd122       O126   2.456   1_545  S
Cd122       O124   2.413   1_445  S
C125        O129   1.265       .  A
C125        C214   1.466       .  S
C130        C131   1.542       .  S
C130        C136   1.524       .  S
C130        C134   1.547       .  S
C130        C358   1.535       .  S
C131        H138   1.086       .  S
C131        C132   1.367   1_655  D
C132        C133   1.543       .  S
C132        C742   1.484       .  S
C133        C137   1.553   1_455  S
C133        C135   1.553       .  S
C133        H139   1.110       .  S
C134        H140   1.083       .  S
C134        C135   1.377   1_655  D
C135        C190   1.506       .  S
C136        H141   1.087       .  S
C136        C137   1.360       .  D
C137        C529   1.494       .  S
C142        C143   1.538   1_565  S
C142        C148   1.523       .  S
C142        C146   1.547   1_565  S
C142        C769   1.540       .  S
C143        H150   1.086       .  S
C143        C144   1.372       .  D
C144        C145   1.555       .  S
C144        C262   1.501       .  S
C145        C149   1.555   1_545  S
C145        C147   1.557       .  S
C145        H151   1.109       .  S
C146        H152   1.081       .  S
C146        C147   1.377       .  D
C147        C649   1.513       .  S
C148        H153   1.088       .  S
C148        C149   1.357       .  D
C149        C433   1.490       .  S
C154        C155   1.530       .  S
C154        C160   1.541       .  S
C154        C158   1.553       .  S
C154        C406   1.542       .  S
C155        H162   1.087       .  S
C155        C156   1.360       .  D
C156        C157   1.550   1_655  S
C156        C601   1.488       .  S
C157        C161   1.545       .  S
C157        C159   1.548       .  S
C157        H163   1.110       .  S
C158        H164   1.082       .  S
C158        C159   1.377   1_655  D
C159        C238   1.503       .  S
C160        H165   1.086       .  S
C160        C161   1.367   1_655  D
C161        C814   1.488       .  S
O166        C169   1.265       .  A
O166       Cd171   2.436       .  S
C167        O176   1.267   1_565  A
C167        O172   1.264   1_655  A
C167        C385   1.469       .  S
O168        C174   1.267   1_455  A
O168       Cd171   2.466       .  S
C169        O177   1.265       .  A
C169        C286   1.468       .  S
C170        O175   1.268   1_565  A
C170        O173   1.263       .  A
C170        C793   1.467       .  S
Cd171       O178   2.426   1_455  S
Cd171       O177   2.421       .  S
Cd171       O176   2.438   1_455  S
Cd171       O172   2.423   1_545  S
Cd171       O175   2.469       .  S
Cd171       O173   2.370   1_545  S
C174        O178   1.264       .  A
C174        C625   1.473       .  S
C179        C180   1.404       .  A
C179        C184   1.405       .  A
C179        H195   1.083       .  S
C180        C181   1.406       .  A
C180        H196   1.084       .  S
C181        C191   1.411       .  A
C181        C182   1.410       .  A
C182        C188   1.412       .  A
C182        C183   1.421       .  A
C183        C185   1.409       .  A
C183        C184   1.414       .  A
C184        C192   1.417       .  A
C185        C194   1.407       .  A
C185        C186   1.405       .  A
C186        C187   1.401       .  A
C186        H197   1.084       .  S
C187        C188   1.404       .  A
C187        H198   1.083       .  S
C188        C189   1.410       .  A
C189        C190   1.412       .  A
C189        H199   1.083       .  S
C190        C191   1.412       .  A
C191        H200   1.083       .  S
C192        C193   1.411       .  A
C192        H201   1.084       .  S
C193        C194   1.414       .  A
C194        H202   1.084       .  S
C203        C204   1.394       .  A
C203        C208   1.402       .  A
C203        H219   1.084       .  S
C204        C205   1.402       .  A
C204        H220   1.083       .  S
C205        C215   1.396       .  A
C205        C206   1.412       .  A
C206        C212   1.411       .  A
C206        C207   1.405       .  A
C207        C209   1.412       .  A
C207        C208   1.411       .  A
C208        C216   1.393       .  A
C209        C218   1.400       .  A
C209        C210   1.403       .  A
C210        C211   1.397       .  A
C210        H221   1.083       .  S
C211        C212   1.403       .  A
C211        H222   1.084       .  S
C212        C213   1.398       .  A
C213        C214   1.405       .  A
C213        H223   1.084       .  S
C214        C215   1.403       .  A
C215        H224   1.084       .  S
C216        C217   1.403       .  A
C216        H225   1.085       .  S
C217        C218   1.405       .  A
C218        H226   1.084       .  S
C227        C228   1.402       .  A
C227        C232   1.405       .  A
C227        H243   1.083       .  S
C228        C229   1.405       .  A
C228        H244   1.084       .  S
C229        C239   1.410       .  A
C229        C230   1.412       .  A
C230        C236   1.411       .  A
C230        C231   1.420       .  A
C231        C233   1.412       .  A
C231        C232   1.411       .  A
C232        C240   1.410       .  A
C233        C242   1.412       .  A
C233        C234   1.405       .  A
C234        C235   1.403       .  A
C234        H245   1.084       .  S
C235        C236   1.405       .  A
C235        H246   1.083       .  S
C236        C237   1.410       .  A
C237        C238   1.412       .  A
C237        H247   1.083       .  S
C238        C239   1.409       .  A
C239        H248   1.084       .  S
C240        C241   1.411       .  A
C240        H249   1.084       .  S
C241        C242   1.411       .  A
C242        H250   1.084       .  S
C251        C252   1.407       .  A
C251        C256   1.406       .  A
C251        H267   1.084       .  S
C252        C253   1.407       .  A
C252        H268   1.083       .  S
C253        C263   1.416       .  A
C253        C254   1.411       .  A
C254        C260   1.412       .  A
C254        C255   1.420       .  A
C255        C257   1.409       .  A
C255        C256   1.414       .  A
C256        C264   1.419       .  A
C257        C266   1.403       .  A
C257        C258   1.404       .  A
C258        C259   1.399       .  A
C258        H269   1.084       .  S
C259        C260   1.403       .  A
C259        H270   1.084       .  S
C260        C261   1.406       .  A
C261        C262   1.408       .  A
C261        H271   1.084       .  S
C262        C263   1.411       .  A
C263        H272   1.080       .  S
C264        C265   1.412       .  A
C264        H273   1.084       .  S
C265        C266   1.412       .  A
C266        H274   1.084       .  S
C275        C276   1.397       .  A
C275        C280   1.403       .  A
C275        H291   1.083       .  S
C276        C277   1.403       .  A
C276        H292   1.084       .  S
C277        C287   1.399       .  A
C277        C278   1.412       .  A
C278        C284   1.411       .  A
C278        C279   1.406       .  A
C279        C281   1.412       .  A
C279        C280   1.411       .  A
C280        C288   1.398       .  A
C281        C290   1.397       .  A
C281        C282   1.402       .  A
C282        C283   1.395       .  A
C282        H293   1.084       .  S
C283        C284   1.402       .  A
C283        H294   1.083       .  S
C284        C285   1.396       .  A
C285        C286   1.403       .  A
C285        H295   1.084       .  S
C286        C287   1.405       .  A
C287        H296   1.084       .  S
C288        C289   1.405       .  A
C288        H297   1.084       .  S
C289        C290   1.402       .  A
C290        H298   1.085       .  S
C299        C300   1.402   1_554  A
C299        C304   1.405       .  A
C299        H315   1.083       .  S
C300        C301   1.405       .  A
C300        H316   1.084       .  S
C301        C311   1.410       .  A
C301        C302   1.413       .  A
C302        C308   1.411       .  A
C302        C303   1.417   1_556  A
C303        C305   1.413       .  A
C303        C304   1.411       .  A
C304        C312   1.408       .  A
C305        C314   1.407       .  A
C305        C306   1.404       .  A
C306        C307   1.400   1_554  A
C306        H317   1.083       .  S
C307        C308   1.404       .  A
C307        H318   1.084       .  S
C308        C309   1.405       .  A
C309        C310   1.408       .  A
C309        H319   1.084       .  S
C310        C311   1.409       .  A
C311        H320   1.084       .  S
C312        C313   1.410       .  A
C312        H321   1.084       .  S
C313        C314   1.406       .  A
C314        H322   1.084       .  S
C323        C324   1.395       .  A
C323        C328   1.402       .  A
C323        H339   1.084       .  S
C324        C325   1.402       .  A
C324        H340   1.083       .  S
C325        C335   1.396       .  A
C325        C326   1.411       .  A
C326        C332   1.412       .  A
C326        C327   1.407       .  A
C327        C329   1.411       .  A
C327        C328   1.412       .  A
C328        C336   1.398       .  A
C329        C338   1.399       .  A
C329        C330   1.403       .  A
C330        C331   1.397       .  A
C330        H341   1.083       .  S
C331        C332   1.403       .  A
C331        H342   1.084       .  S
C332        C333   1.400       .  A
C333        C334   1.404       .  A
C333        H343   1.084       .  S
C334        C335   1.404       .  A
C335        H344   1.084       .  S
C336        C337   1.404       .  A
C336        H345   1.085       .  S
C337        C338   1.405       .  A
C338        H346   1.084       .  S
C347        C348   1.403       .  A
C347        C352   1.405       .  A
C347        H363   1.084       .  S
C348        C349   1.406       .  A
C348        H364   1.083       .  S
C349        C359   1.411       .  A
C349        C350   1.411       .  A
C350        C356   1.409       .  A
C350        C351   1.416       .  A
C351        C353   1.411       .  A
C351        C352   1.411       .  A
C352        C360   1.409       .  A
C353        C362   1.404       .  A
C353        C354   1.403       .  A
C354        C355   1.399       .  A
C354        H365   1.083       .  S
C355        C356   1.404       .  A
C355        H366   1.084       .  S
C356        C357   1.402       .  A
C357        C358   1.412       .  A
C357        H367   1.084       .  S
C358        C359   1.414       .  A
C359        H368   1.080       .  S
C360        C361   1.410       .  A
C360        H369   1.084       .  S
C361        C362   1.407       .  A
C362        H370   1.084       .  S
C371        C372   1.396       .  A
C371        C376   1.402       .  A
C371        H387   1.083       .  S
C372        C373   1.402       .  A
C372        H388   1.084       .  S
C373        C383   1.398       .  A
C373        C374   1.411       .  A
C374        C380   1.412       .  A
C374        C375   1.407       .  A
C375        C377   1.411       .  A
C375        C376   1.412       .  A
C376        C384   1.397       .  A
C377        C386   1.399       .  A
C377        C378   1.403       .  A
C378        C379   1.398       .  A
C378        H389   1.084       .  S
C379        C380   1.403       .  A
C379        H390   1.084       .  S
C380        C381   1.400       .  A
C381        C382   1.405       .  A
C381        H391   1.084       .  S
C382        C383   1.405       .  A
C383        H392   1.084       .  S
C384        C385   1.403       .  A
C384        H393   1.084       .  S
C385        C386   1.406       .  A
C386        H394   1.084       .  S
C395        C396   1.403       .  A
C395        C400   1.405       .  A
C395        H411   1.083       .  S
C396        C397   1.406       .  A
C396        H412   1.083       .  S
C397        C407   1.413       .  A
C397        C398   1.412       .  A
C398        C404   1.409       .  A
C398        C399   1.419       .  A
C399        C401   1.412       .  A
C399        C400   1.411       .  A
C400        C408   1.410       .  A
C401        C410   1.409       .  A
C401        C402   1.404       .  A
C402        C403   1.401       .  A
C402        H413   1.083       .  S
C403        C404   1.405       .  A
C403        H414   1.084       .  S
C404        C405   1.406       .  A
C405        C406   1.414       .  A
C405        H415   1.084       .  S
C406        C407   1.415       .  A
C407        H416   1.079       .  S
C408        C409   1.412       .  A
C408        H417   1.084       .  S
C409        C410   1.409       .  A
C410        H418   1.084       .  S
C419        C420   1.401       .  A
C419        C424   1.403       .  A
C419        H435   1.083       .  S
C420        C421   1.404       .  A
C420        H436   1.083       .  S
C421        C431   1.405       .  A
C421        C422   1.409       .  A
C422        C428   1.414       .  A
C422        C423   1.419       .  A
C423        C425   1.409       .  A
C423        C424   1.415       .  A
C424        C432   1.411       .  A
C425        C434   1.407       .  A
C425        C426   1.406       .  A
C426        C427   1.403       .  A
C426        H437   1.084       .  S
C427        C428   1.405       .  A
C427        H438   1.083       .  S
C428        C429   1.414       .  A
C429        C430   1.411       .  A
C429        H439   1.084       .  S
C430        C431   1.410       .  A
C431        H440   1.084       .  S
C432        C433   1.404       .  A
C432        H441   1.084       .  S
C433        C434   1.411       .  A
C434        H442   1.085       .  S
C443        C444   1.394   1_554  A
C443        C448   1.401       .  A
C443        H459   1.084       .  S
C444        C445   1.401       .  A
C444        H460   1.084       .  S
C445        C455   1.395       .  A
C445        C446   1.411       .  A
C446        C452   1.413       .  A
C446        C447   1.412   1_556  A
C447        C449   1.413       .  A
C447        C448   1.411       .  A
C448        C456   1.395       .  A
C449        C458   1.411       .  A
C449        C450   1.406       .  A
C450        C451   1.404   1_554  A
C450        H461   1.083       .  S
C451        C452   1.406       .  A
C451        H462   1.083       .  S
C452        C453   1.411       .  A
C453        C454   1.408       .  A
C453        H463   1.084       .  S
C454        C455   1.404       .  A
C455        H464   1.085       .  S
C456        C457   1.403       .  A
C456        H465   1.085       .  S
C457        C458   1.408       .  A
C458        H466   1.084       .  S
C467        C468   1.399       .  A
C467        C472   1.404       .  A
C467        H483   1.084       .  S
C468        C469   1.404       .  A
C468        H484   1.083       .  S
C469        C479   1.407       .  A
C469        C470   1.410       .  A
C470        C476   1.410       .  A
C470        C471   1.421       .  A
C471        C473   1.414       .  A
C471        C472   1.409       .  A
C472        C480   1.405       .  A
C473        C482   1.419       .  A
C473        C474   1.407       .  A
C474        C475   1.407       .  A
C474        H485   1.083       .  S
C475        C476   1.407       .  A
C475        H486   1.084       .  S
C476        C477   1.414       .  A
C477        C478   1.412       .  A
C477        H487   1.079       .  S
C478        C479   1.413       .  A
C479        H488   1.083       .  S
C480        C481   1.412       .  A
C480        H489   1.084       .  S
C481        C482   1.413       .  A
C482        H490   1.084       .  S
C491        C492   1.401       .  A
C491        C496   1.404       .  A
C491        H507   1.083       .  S
C492        C493   1.404       .  A
C492        H508   1.083       .  S
C493        C503   1.408       .  A
C493        C494   1.413       .  A
C494        C500   1.410       .  A
C494        C495   1.417       .  A
C495        C497   1.414       .  A
C495        C496   1.411       .  A
C496        C504   1.406       .  A
C497        C506   1.411       .  A
C497        C498   1.405       .  A
C498        C499   1.402       .  A
C498        H509   1.084       .  S
C499        C500   1.405       .  A
C499        H510   1.083       .  S
C500        C501   1.407       .  A
C501        C502   1.410       .  A
C501        H511   1.084       .  S
C502        C503   1.407       .  A
C503        H512   1.084       .  S
C504        C505   1.408       .  A
C504        H513   1.084       .  S
C505        C506   1.407       .  A
C506        H514   1.084       .  S
C515        C516   1.401       .  A
C515        C520   1.403       .  A
C515        H531   1.083       .  S
C516        C517   1.405       .  A
C516        H532   1.083       .  S
C517        C527   1.405       .  A
C517        C518   1.408       .  A
C518        C524   1.415       .  A
C518        C519   1.419       .  A
C519        C521   1.409       .  A
C519        C520   1.415       .  A
C520        C528   1.412       .  A
C521        C530   1.406       .  A
C521        C522   1.406       .  A
C522        C523   1.403       .  A
C522        H533   1.084       .  S
C523        C524   1.405       .  A
C523        H534   1.083       .  S
C524        C525   1.414       .  A
C525        C526   1.409       .  A
C525        H535   1.084       .  S
C526        C527   1.411       .  A
C527        H536   1.084       .  S
C528        C529   1.405       .  A
C528        H537   1.084       .  S
C529        C530   1.412       .  A
C530        H538   1.085       .  S
C539        C540   1.397       .  A
C539        C544   1.402       .  A
C539        H555   1.084       .  S
C540        C541   1.403       .  A
C540        H556   1.083       .  S
C541        C551   1.398       .  A
C541        C542   1.410       .  A
C542        C548   1.413       .  A
C542        C543   1.410       .  A
C543        C545   1.410       .  A
C543        C544   1.412       .  A
C544        C552   1.400       .  A
C545        C554   1.402       .  A
C545        C546   1.404       .  A
C546        C547   1.400       .  A
C546        H557   1.083       .  S
C547        C548   1.404       .  A
C547        H558   1.084       .  S
C548        C549   1.406       .  A
C549        C550   1.406       .  A
C549        H559   1.084       .  S
C550        C551   1.406       .  A
C551        H560   1.084       .  S
C552        C553   1.404       .  A
C552        H561   1.084       .  S
C553        C554   1.407       .  A
C554        H562   1.084       .  S
C563        C564   1.399       .  A
C563        C568   1.403       .  A
C563        H579   1.084       .  S
C564        C565   1.403       .  A
C564        H580   1.083       .  S
C565        C575   1.406       .  A
C565        C566   1.410       .  A
C566        C572   1.410       .  A
C566        C567   1.419       .  A
C567        C569   1.413       .  A
C567        C568   1.410       .  A
C568        C576   1.404       .  A
C569        C578   1.416       .  A
C569        C570   1.407       .  A
C570        C571   1.405       .  A
C570        H581   1.083       .  S
C571        C572   1.407       .  A
C571        H582   1.084       .  S
C572        C573   1.412       .  A
C573        C574   1.413       .  A
C573        H583   1.079       .  S
C574        C575   1.413       .  A
C575        H584   1.082       .  S
C576        C577   1.409       .  A
C576        H585   1.084       .  S
C577        C578   1.413       .  A
C578        H586   1.084       .  S
C587        C588   1.402       .  A
C587        C592   1.405       .  A
C587        H603   1.083       .  S
C588        C589   1.405       .  A
C588        H604   1.083       .  S
C589        C599   1.412       .  A
C589        C590   1.413       .  A
C590        C596   1.410       .  A
C590        C591   1.419       .  A
C591        C593   1.413       .  A
C591        C592   1.411       .  A
C592        C600   1.408       .  A
C593        C602   1.412       .  A
C593        C594   1.405       .  A
C594        C595   1.403       .  A
C594        H605   1.084       .  S
C595        C596   1.406       .  A
C595        H606   1.083       .  S
C596        C597   1.409       .  A
C597        C598   1.413       .  A
C597        H607   1.084       .  S
C598        C599   1.410       .  A
C599        H608   1.084       .  S
C600        C601   1.407       .  A
C600        H609   1.084       .  S
C601        C602   1.407       .  A
C602        H610   1.084       .  S
C611        C612   1.397       .  A
C611        C616   1.403       .  A
C611        H627   1.084       .  S
C612        C613   1.403       .  A
C612        H628   1.084       .  S
C613        C623   1.398       .  A
C613        C614   1.411       .  A
C614        C620   1.412       .  A
C614        C615   1.407       .  A
C615        C617   1.410       .  A
C615        C616   1.412       .  A
C616        C624   1.401       .  A
C617        C626   1.398       .  A
C617        C618   1.403       .  A
C618        C619   1.396       .  A
C618        H629   1.084       .  S
C619        C620   1.402       .  A
C619        H630   1.084       .  S
C620        C621   1.398       .  A
C621        C622   1.403       .  A
C621        H631   1.085       .  S
C622        C623   1.405       .  A
C623        H632   1.084       .  S
C624        C625   1.405       .  A
C624        H633   1.084       .  S
C625        C626   1.406       .  A
C626        H634   1.084       .  S
C635        C636   1.403       .  A
C635        C640   1.406       .  A
C635        H651   1.083       .  S
C636        C637   1.405       .  A
C636        H652   1.083       .  S
C637        C647   1.412       .  A
C637        C638   1.412       .  A
C638        C644   1.411       .  A
C638        C639   1.420       .  A
C639        C641   1.410       .  A
C639        C640   1.410       .  A
C640        C648   1.412       .  A
C641        C650   1.409       .  A
C641        C642   1.405       .  A
C642        C643   1.402       .  A
C642        H653   1.084       .  S
C643        C644   1.405       .  A
C643        H654   1.083       .  S
C644        C645   1.409       .  A
C645        C646   1.412       .  A
C645        H655   1.084       .  S
C646        C647   1.410       .  A
C647        H656   1.084       .  S
C648        C649   1.412       .  A
C648        H657   1.079       .  S
C649        C650   1.415       .  A
C650        H658   1.082       .  S
C659        C660   1.397       .  A
C659        C664   1.403       .  A
C659        H675   1.084       .  S
C660        C661   1.403       .  A
C660        H676   1.084       .  S
C661        C671   1.404       .  A
C661        C662   1.412       .  A
C662        C668   1.411       .  A
C662        C663   1.418       .  A
C663        C665   1.414       .  A
C663        C664   1.409       .  A
C664        C672   1.399       .  A
C665        C674   1.416       .  A
C665        C666   1.406       .  A
C666        C667   1.406       .  A
C666        H677   1.084       .  S
C667        C668   1.407       .  A
C667        H678   1.083       .  S
C668        C669   1.415       .  A
C669        C670   1.413       .  A
C669        H679   1.084       .  S
C670        C671   1.408       .  A
C671        H680   1.084       .  S
C672        C673   1.409       .  A
C672        H681   1.084       .  S
C673        C674   1.411       .  A
C674        H682   1.084       .  S
C683        C684   1.401       .  A
C683        C688   1.404       .  A
C683        H699   1.083       .  S
C684        C685   1.405       .  A
C684        H700   1.084       .  S
C685        C695   1.409       .  A
C685        C686   1.410       .  A
C686        C692   1.409       .  A
C686        C687   1.418       .  A
C687        C689   1.411       .  A
C687        C688   1.411       .  A
C688        C696   1.409       .  A
C689        C698   1.409       .  A
C689        C690   1.405       .  A
C690        C691   1.402       .  A
C690        H701   1.084       .  S
C691        C692   1.405       .  A
C691        H702   1.084       .  S
C692        C693   1.408       .  A
C693        C694   1.415       .  A
C693        H703   1.084       .  S
C694        C695   1.415       .  A
C695        H704   1.078       .  S
C696        C697   1.409       .  A
C696        H705   1.084       .  S
C697        C698   1.411       .  A
C698        H706   1.084       .  S
C707        C708   1.398       .  A
C707        C712   1.403       .  A
C707        H723   1.084       .  S
C708        C709   1.403       .  A
C708        H724   1.084       .  S
C709        C719   1.401       .  A
C709        C710   1.412       .  A
C710        C716   1.411       .  A
C710        C711   1.408       .  A
C711        C713   1.411       .  A
C711        C712   1.411       .  A
C712        C720   1.399       .  A
C713        C722   1.399       .  A
C713        C714   1.402       .  A
C714        C715   1.397       .  A
C714        H725   1.083       .  S
C715        C716   1.403       .  A
C715        H726   1.084       .  S
C716        C717   1.399       .  A
C717        C718   1.406       .  A
C717        H727   1.084       .  S
C718        C719   1.406       .  A
C719        H728   1.084       .  S
C720        C721   1.405       .  A
C720        H729   1.084       .  S
C721        C722   1.404       .  A
C722        H730   1.084       .  S
C731        C732   1.401       .  A
C731        C736   1.405       .  A
C731        H747   1.083       .  S
C732        C733   1.404       .  A
C732        H748   1.084       .  S
C733        C743   1.406       .  A
C733        C734   1.412       .  A
C734        C740   1.414       .  A
C734        C735   1.417       .  A
C735        C737   1.411       .  A
C735        C736   1.412       .  A
C736        C744   1.409       .  A
C737        C746   1.408       .  A
C737        C738   1.405       .  A
C738        C739   1.402       .  A
C738        H749   1.083       .  S
C739        C740   1.404       .  A
C739        H750   1.084       .  S
C740        C741   1.409       .  A
C741        C742   1.404       .  A
C741        H751   1.084       .  S
C742        C743   1.406       .  A
C743        H752   1.085       .  S
C744        C745   1.409       .  A
C744        H753   1.083       .  S
C745        C746   1.410       .  A
C746        H754   1.084       .  S
C755        C756   1.401       .  A
C755        C760   1.405       .  A
C755        H771   1.084       .  S
C756        C757   1.405       .  A
C756        H772   1.083       .  S
C757        C767   1.409       .  A
C757        C758   1.412       .  A
C758        C764   1.411       .  A
C758        C759   1.418       .  A
C759        C761   1.411       .  A
C759        C760   1.409       .  A
C760        C768   1.406       .  A
C761        C770   1.410       .  A
C761        C762   1.405       .  A
C762        C763   1.402       .  A
C762        H773   1.083       .  S
C763        C764   1.404       .  A
C763        H774   1.083       .  S
C764        C765   1.409       .  A
C765        C766   1.410       .  A
C765        H775   1.084       .  S
C766        C767   1.411       .  A
C767        H776   1.084       .  S
C768        C769   1.414       .  A
C768        H777   1.084       .  S
C769        C770   1.415       .  A
C770        H778   1.079       .  S
C779        C780   1.394       .  A
C779        C784   1.401       .  A
C779        H795   1.084       .  S
C780        C781   1.401       .  A
C780        H796   1.084       .  S
C781        C791   1.396       .  A
C781        C782   1.412       .  A
C782        C788   1.410       .  A
C782        C783   1.406       .  A
C783        C785   1.413       .  A
C783        C784   1.409       .  A
C784        C792   1.391       .  A
C785        C794   1.403       .  A
C785        C786   1.403       .  A
C786        C787   1.399       .  A
C786        H797   1.084       .  S
C787        C788   1.404       .  A
C787        H798   1.084       .  S
C788        C789   1.401       .  A
C789        C790   1.406       .  A
C789        H799   1.084       .  S
C790        C791   1.403       .  A
C791        H800   1.084       .  S
C792        C793   1.404       .  A
C792        H801   1.084       .  S
C793        C794   1.405       .  A
C794        H802   1.084       .  S
C803        C804   1.404       .  A
C803        C808   1.406       .  A
C803        H819   1.083       .  S
C804        C805   1.405       .  A
C804        H820   1.084       .  S
C805        C815   1.410       .  A
C805        C806   1.412       .  A
C806        C812   1.414       .  A
C806        C807   1.419       .  A
C807        C809   1.410       .  A
C807        C808   1.413       .  A
C808        C816   1.414       .  A
C809        C818   1.407       .  A
C809        C810   1.405       .  A
C810        C811   1.401       .  A
C810        H821   1.083       .  S
C811        C812   1.404       .  A
C811        H822   1.084       .  S
C812        C813   1.410       .  A
C813        C814   1.405       .  A
C813        H823   1.084       .  S
C814        C815   1.408       .  A
C815        H824   1.085       .  S
C816        C817   1.411       .  A
C816        H825   1.084       .  S
C817        C818   1.411       .  A
C818        H826   1.084       .  S
C827        C828   1.397       .  A
C827        C832   1.403       .  A
C827        H843   1.084       .  S
C828        C829   1.403       .  A
C828        H844   1.084       .  S
C829        C839   1.401       .  A
C829        C830   1.410       .  A
C830        C836   1.413       .  A
C830        C831   1.417       .  A
C831        C833   1.412       .  A
C831        C832   1.411       .  A
C832        C840   1.402       .  A
C833        C842   1.414       .  A
C833        C834   1.406       .  A
C834        C835   1.406       .  A
C834        H845   1.083       .  S
C835        C836   1.406       .  A
C835        H846   1.084       .  S
C836        C837   1.415       .  A
C837        C838   1.412       .  A
C837        H847   1.084       .  S
C838        C839   1.408       .  A
C839        H848   1.084       .  S
C840        C841   1.408       .  A
C840        H849   1.084       .  S
C841        C842   1.412       .  A
C842        H850   1.084       .  S
