geometry optimzed in LAMMPS
_audit_creation_date              2020-11-30 
_audit_creation_method            'lammps2cif' 
_symmetry_space_group_name_H-M    'P1' 
_symmetry_Int_Tables_number       1 
_symmetry_cell_setting            triclinic 
loop_ 
_symmetry_equiv_pos_as_xyz 
  x,y,z 
_cell_length_a                    27.50896614 
_cell_length_b                    28.022533952158206 
_cell_length_c                    50.79565976882587 
_cell_angle_alpha                 91.76905947011761 
_cell_angle_beta                  87.87095277032842 
_cell_angle_gamma                 118.23177908347482 
loop_ 
_atom_site_label 
_atom_site_type_symbol 
_atom_site_fract_x 
_atom_site_fract_y 
_atom_site_fract_z 
_atom_site_charge 
C1          C  0.30482345  0.19488340  0.47665994     0.80200
N2          N  0.27864409  0.14497533  0.99628929    -0.78100
C3          C  0.30253020  0.11173561  0.99727215     0.82700
N4          N  0.35828377  0.13505713  0.99911922    -0.78000
C5          C  0.38976551  0.19167057  0.47070920     0.82800
N6          N  0.36103255  0.21990514  0.47420621    -0.79700
C7          C  0.19081135  0.30707018  0.99178912     0.80200
N8          N  0.13475403  0.27850632  0.99201520    -0.78100
C9          C  0.10295523  0.30351088  0.98910129     0.82700
N10         N  0.12822525  0.35867023  0.98715959    -0.78000
C11         C  0.18465137  0.38872307  0.98692018     0.82800
N12         N  0.21492874  0.36234844  0.99012934    -0.79700
C13         C  0.29861893  0.31110531  0.03452651     0.86500
C14         C  0.29603307  0.25595821  0.03059522    -0.53700
C15         C  0.28194489  0.23353175  0.00614125     0.09400
C16         C  0.27103730  0.27127261  0.48357387     0.20400
C17         C  0.33514525  0.34568974  0.01091550    -0.54500
C18         C  0.32873299  0.31949057  0.48327809     0.09500
C19         C  0.24084544  0.30229804  0.02821882    -0.54000
C20         C  0.22313794  0.28249671  0.00368702     0.10100
H21         H  0.31303768  0.24011053  0.04488007     0.14600
H22         H  0.25017263  0.26199707  0.46435598     0.00400
H23         H  0.37117799  0.38505697  0.01302907     0.14900
H24         H  0.22180379  0.32316207  0.03931116     0.14700
C25         C  0.98154598  0.19329135  0.02174489     0.86500
C26         C  0.03008741  0.25023434  0.01982397    -0.53700
C27         C  0.04218920  0.27166728  0.99525006     0.09400
C28         C  0.00967484  0.24350946  0.49501933     0.20400
C29         C  0.45122819  0.18275803  0.03055726    -0.54500
C30         C  0.44766447  0.21195075  0.01060747     0.09500
C31         C  0.99312882  0.15962922  0.99948512    -0.54000
C32         C  0.02061919  0.19782995  0.48502127     0.10100
H33         H  0.05880106  0.26791529  0.03583996     0.14600
H34         H  0.00934685  0.27010616  0.47950834     0.00400
H35         H  0.41498881  0.15452712  0.04179336     0.16800
H36         H  0.99266783  0.12138015  0.00288038     0.14700
C37         C  0.17922703  0.01297004  0.03190532     0.86500
C38         C  0.19965470  0.45491172  0.02111034    -0.53700
C39         C  0.20935820  0.44725917  0.99547095     0.09400
C40         C  0.23217241  0.00068641  0.47001780     0.20400
C41         C  0.23821342  0.05808661  0.03008186    -0.54500
C42         C  0.26797647  0.05619723  0.00864281     0.09500
C43         C  0.15564012  0.01216893  0.00409169    -0.54000
C44         C  0.18040454  0.00747992  0.47364181     0.10100
H45         H  0.18540387  0.42240950  0.03531600     0.14600
H46         H  0.24335877  0.99521337  0.44933833     0.00400
H47         H  0.25139321  0.09469517  0.04219003     0.14900
H48         H  0.12087843  0.01917017  0.00109487     0.14700
O49         O  0.41061828  0.42768178  0.23995291    -0.85300
O50         O  0.05306947  0.41969397  0.22367239    -0.82400
C51         C  0.03792534  0.01296379  0.21431932     0.98100
O52         O  0.06217186  0.05195385  0.23055692    -0.82400
O53         O  0.00122456  0.09985279  0.21991792    -0.85100
C54         C  0.95704179  0.10088439  0.21568335     1.02700
O55         O  0.49537234  0.02880425  0.22996353    -0.77800
O56         O  0.38896044  0.48848233  0.22723419    -0.78000
C57         C  0.39222083  0.44594666  0.22262779     1.02600
O58         O  0.43826825  0.45395991  0.29468305    -0.85300
O59         O  0.07480911  0.43669369  0.28034135    -0.82400
C60         C  0.05329593  0.03077256  0.29211288     0.98200
O61         O  0.04826781  0.07189043  0.28708496    -0.82400
O62         O  0.99525003  0.12845844  0.27452207    -0.85000
C63         C  0.95789003  0.11182220  0.29244040     1.02600
O64         O  0.48350486  0.00297423  0.28550013    -0.77800
O65         O  0.37052589  0.47042844  0.28441850    -0.78000
C66         C  0.39316568  0.45312728  0.30029018     1.02600
Cr67       Cr  0.47789302  0.47287416  0.26116327     1.93700
Cr68       Cr  0.02276875  0.08381085  0.25331748     1.93200
Cr69       Cr  0.40869636  0.53304696  0.25906680     1.39100
O70         O  0.53538093  0.96435143  0.25230700    -1.23100
C71         C  0.09519860  0.07411219  0.14766681    -0.02000
C72         C  0.07587949  0.02773572  0.13123549     0.06600
C73         C  0.12822808  0.44164018  0.14870567    -0.08000
C74         C  0.11153493  0.42924263  0.17496233     0.04000
C75         C  0.05432166  0.01699399  0.18603103    -0.15200
C76         C  0.08417263  0.06854224  0.17485240    -0.08500
C77         C  0.10165094  0.02970851  0.10514958     0.05000
C78         C  0.22255649  0.51323410  0.10231866    -0.09600
C79         C  0.23229046  0.51482048  0.07518323     0.00000
C80         C  0.15136123  0.01962201  0.05722802    -0.00200
C81         C  0.10093320  0.02125429  0.05736350    -0.13200
C82         C  0.07567706  0.02559834  0.08120606     0.00300
C83         C  0.28333086  0.51598251  0.06616671     0.39600
C84         C  0.02300013  0.02482235  0.08061015     0.36200
C85         C  0.12778330  0.12752786  0.13698236     0.36000
C86         C  0.07834886  0.37276930  0.18138681     0.36700
N87         N  0.32410760  0.51681316  0.05892853    -0.44100
N88         N  0.98071249  0.02406975  0.07966609    -0.44500
N89         N  0.51640295  0.38694626  0.19817352    -0.41900
N90         N  0.15387471  0.17021191  0.12826239    -0.43300
H91         H  0.09860301  0.10457569  0.18728077     0.12800
H92         H  0.11493669  0.40939077  0.13394748     0.09300
H93         H  0.25330867  0.51446373  0.11550409     0.10400
H94         H  0.08015472  0.01778392  0.03922292     0.16200
C95         C  0.17374011  0.04945064  0.40456324    -0.02000
C96         C  0.11705501  0.02149145  0.39924526     0.06600
C97         C  0.09956226  0.46798353  0.42533301    -0.08000
C98         C  0.11166722  0.47436671  0.45237952     0.04000
C99         C  0.15532550  0.01639197  0.44977743    -0.15200
C100        C  0.19191877  0.04717605  0.42945429    -0.08500
C101        C  0.09799179  0.02298345  0.37225824     0.05000
C102        C  0.10703945  0.43629174  0.36437648    -0.09600
C103        C  0.09674078  0.43200548  0.33722845     0.00000
C104        C  0.07417010  0.02744095  0.31853504    -0.00200
C105        C  0.09704565  0.07451821  0.33466979    -0.13200
C106        C  0.10733281  0.07228275  0.36130645     0.00300
C107        C  0.07030288  0.37854518  0.32535172     0.39600
C108        C  0.12629113  0.12075473  0.37750425     0.36200
C109        C  0.21481580  0.07903750  0.38441839     0.36000
C110        C  0.06735012  0.44835314  0.47147861     0.36700
N111        N  0.04902387  0.33553610  0.31597945    -0.44100
N112        N  0.14152782  0.15869167  0.39111736    -0.44500
N113        N  0.01960037  0.44255047  0.99092266    -0.41900
N114        N  0.24780647  0.10293317  0.36838373    -0.43300
H115        H  0.23584932  0.06828023  0.43249150     0.12800
H116        H  0.05712132  0.44488092  0.41927632     0.09300
H117        H  0.09723614  0.40018484  0.37541378     0.10400
H118        H  0.10428019  0.11299679  0.32688254     0.16200
C119        C  0.03348978  0.18907158  0.35227165    -0.02000
C120        C  0.99078017  0.16867415  0.37193926     0.06600
C121        C  0.47236924  0.08520898  0.35276970    -0.08000
C122        C  0.47390187  0.07256660  0.32594369     0.04000
C123        C  0.96656817  0.14208255  0.31796233    -0.15200
C124        C  0.02099412  0.17581193  0.32567270    -0.08500
C125        C  0.00222724  0.17410923  0.40089465     0.05000
C126        C  0.03851195  0.22486880  0.41136553    -0.09600
C127        C  0.05059514  0.23222780  0.43813037     0.00000
C128        C  0.02322494  0.18859280  0.45593312    -0.00200
C129        C  0.48076763  0.10364720  0.44146145    -0.13200
C130        C  0.48040569  0.08377129  0.41557075     0.00300
C131        C  0.09190595  0.28570955  0.44585636     0.39600
C132        C  0.44094659  0.02857902  0.40924457     0.36200
C133        C  0.09089325  0.22159848  0.35849324     0.36000
C134        C  0.42391752  0.05336396  0.31128496     0.36700
N135        N  0.12571353  0.32963852  0.44993308    -0.44100
N136        N  0.40905939  0.98442921  0.40410642    -0.44500
N137        N  0.38385595  0.03802493  0.29955075    -0.41900
N138        N  0.13697462  0.24882251  0.36306959    -0.43300
H139        H  0.05461655  0.18794431  0.31123136     0.12800
H140        H  0.43449007  0.08165613  0.36181663     0.09300
H141        H  0.05701750  0.25970589  0.39862193     0.10400
H142        H  0.45040453  0.07773747  0.45589356     0.16200
C143        C  0.00451057  0.17117443  0.15052202    -0.02000
C144        C  0.95803673  0.14146311  0.13479495     0.06600
C145        C  0.46909077  0.06473343  0.15066505    -0.08000
C146        C  0.47374103  0.04975877  0.17618262     0.04000
C147        C  0.95283321  0.12144591  0.18963757    -0.15200
C148        C  0.00192927  0.16012322  0.17737555    -0.08500
C149        C  0.96079348  0.14935810  0.10554824     0.05000
C150        C  0.00329446  0.14747265  0.08989080    -0.09600
C151        C  0.00963801  0.15933218  0.06279658     0.00000
C152        C  0.97244426  0.17283907  0.05042593    -0.00200
C153        C  0.48902567  0.17065557  0.08166850    -0.13200
C154        C  0.49018518  0.15049331  0.10625171     0.00300
C155        C  0.05638360  0.15994387  0.04860821     0.39600
C156        C  0.47399232  0.17170404  0.12927534     0.36200
C157        C  0.05507362  0.21407514  0.13972384     0.36000
C158        C  0.42333907  0.01841363  0.19115329     0.36700
N159        N  0.08011567  0.09209583  0.52495820    -0.44100
N160        N  0.46112214  0.18883526  0.14769063    -0.44500
N161        N  0.38282139  0.99324601  0.20307902    -0.41900
N162        N  0.09530974  0.24866361  0.13095341    -0.43300
H163        H  0.03906472  0.18100160  0.18874857     0.12800
H164        H  0.42858421  0.05343074  0.14317632     0.09300
H165        H  0.03242322  0.13764450  0.09899855     0.10400
H166        H  0.47540231  0.20113696  0.08094877     0.16200
C167        C  0.31407001  0.38375832  0.42339159    -0.02000
C168        C  0.35254223  0.37933078  0.40598678     0.06600
C169        C  0.39163377  0.36595699  0.41570663    -0.08000
C170        C  0.38951145  0.35236891  0.44223399     0.04000
C171        C  0.34794495  0.35252046  0.45923739    -0.15200
C172        C  0.31232953  0.37060588  0.44968869    -0.08500
C173        C  0.35758262  0.39655806  0.37854391     0.05000
C174        C  0.39532730  0.44999503  0.37340087    -0.09600
C175        C  0.40220232  0.47017273  0.34821380     0.00000
C176        C  0.37166984  0.43645874  0.32719237    -0.00200
C177        C  0.33288300  0.38245249  0.33232756    -0.13200
C178        C  0.32540382  0.36231898  0.35804191     0.00300
C179        C  0.44448762  0.52486409  0.34446822     0.39600
C180        C  0.28763960  0.30598827  0.36270445     0.36200
C181        C  0.27544885  0.40098136  0.41467311     0.36000
C182        C  0.42932805  0.33721939  0.45114385     0.36700
N183        N  0.55628533  0.99196333  0.33448504    -0.44100
N184        N  0.25786436  0.26068473  0.36648098    -0.44500
N185        N  0.46221161  0.32586896  0.45786135    -0.41900
N186        N  0.24451704  0.41485874  0.40782698    -0.43300
H187        H  0.28046849  0.37120692  0.46235627     0.12800
H188        H  0.42333169  0.36558404  0.40247790     0.09300
H189        H  0.42067318  0.47575726  0.38917190     0.10400
H190        H  0.31110078  0.35543344  0.31616153     0.16200
C191        C  0.29134648  0.34271892  0.10832885    -0.02000
C192        C  0.34671369  0.36584235  0.11544149     0.06600
C193        C  0.38696067  0.37021841  0.09658674    -0.08000
C194        C  0.37262035  0.35293836  0.07043587     0.04000
C195        C  0.31723699  0.33302999  0.06251275    -0.15200
C196        C  0.27699005  0.32593048  0.08239304    -0.08500
C197        C  0.36248076  0.38724598  0.14244495     0.05000
C198        C  0.36809982  0.35495022  0.16141715    -0.09600
C199        C  0.37632830  0.37181931  0.18795879     0.00000
C200        C  0.37850816  0.42172052  0.19571539    -0.00200
C201        C  0.37286511  0.45359941  0.17630496    -0.13200
C202        C  0.36520318  0.43701327  0.15002905     0.00300
C203        C  0.38150515  0.33680510  0.20661296     0.39600
C204        C  0.35965398  0.47165593  0.13121256     0.36200
C205        C  0.24839702  0.33523514  0.12760117     0.36000
C206        C  0.41520084  0.35364098  0.05273534     0.36700
N207        N  0.38576336  0.30859529  0.22147191    -0.44100
N208        N  0.35511273  0.49958218  0.11630072    -0.44500
N209        N  0.44968846  0.35390793  0.03888863    -0.41900
N210        N  0.21455772  0.32963503  0.14326429    -0.43300
H211        H  0.23343784  0.30524321  0.07840155     0.12800
H212        H  0.42955366  0.38685233  0.10237284     0.09300
H213        H  0.36495825  0.31607420  0.15553596     0.10400
H214        H  0.37536175  0.49252335  0.18143431     0.16200
C215        C  0.30930183  0.19997632  0.99703676     0.80200
N216        N  0.27724897  0.13972939  0.47586022    -0.78100
C217        C  0.30427495  0.10961006  0.47176018     0.82700
N218        N  0.36046881  0.13624993  0.46949560    -0.78000
C219        C  0.39060259  0.19016533  0.99975139     0.82800
N220        N  0.36532166  0.22193500  0.99955448    -0.79700
C221        C  0.20528826  0.31491598  0.50137033     0.80200
N222        N  0.14959094  0.28499919  0.50385320    -0.78100
C223        C  0.11629470  0.30884340  0.50659280     0.82700
N224        N  0.13986960  0.36397299  0.50712242    -0.78000
C225        C  0.19597665  0.39538184  0.50432084     0.82800
N226        N  0.22826490  0.37033272  0.50262396    -0.79700
C227        C  0.31712808  0.29041231  0.52935388     0.86500
C228        C  0.30008391  0.23373151  0.51826128    -0.53700
C229        C  0.28071326  0.22419420  0.49332822     0.09400
C230        C  0.26447313  0.26731960  0.98829186     0.20400
C231        C  0.35396154  0.33027444  0.50724336    -0.54500
C232        C  0.31630542  0.32168077  0.98674361     0.09500
C233        C  0.26462791  0.29661516  0.52928841    -0.54000
C234        C  0.24045000  0.28806006  0.50555607     0.10100
H235        H  0.31389492  0.20764301  0.52730969     0.14600
H236        H  0.24899359  0.24744152  0.96890189     0.00400
H237        H  0.39382581  0.36519087  0.51051813     0.14900
H238        H  0.25248874  0.31497512  0.54562902     0.14700
C239        C  0.00893284  0.18346068  0.53345755     0.86500
C240        C  0.05213076  0.24269779  0.53587325    -0.53700
C241        C  0.05709145  0.27400153  0.51499602     0.09400
C242        C  0.99830297  0.23468502  0.97476001     0.20400
C243        C  0.43625374  0.19511118  0.50956763    -0.54500
C244        C  0.44311309  0.21444372  0.48491456     0.09500
C245        C  0.01934323  0.16473266  0.50511011    -0.54000
C246        C  0.00273635  0.18242604  0.97475449     0.10100
H247        H  0.08449699  0.25538411  0.55025804     0.14600
H248        H  0.00410834  0.25375526  0.95529077     0.00400
H249        H  0.39472823  0.17188667  0.51776253     0.16800
H250        H  0.02181512  0.12796476  0.50078070     0.14700
C251        C  0.21038683  0.01156175  0.51947092     0.86500
C252        C  0.20226244  0.46551140  0.53465346    -0.53700
C253        C  0.22074208  0.45483800  0.51129393     0.09400
C254        C  0.23645584  0.00162169  0.99273200     0.20400
C255        C  0.26574446  0.05603131  0.50957758    -0.54500
C256        C  0.27705607  0.05389891  0.48342571     0.09500
C257        C  0.16797446  0.01292224  0.49987178    -0.54000
C258        C  0.18648705  0.00601369  0.98331865     0.10100
H259        H  0.18356978  0.43514732  0.54989228     0.14600
H260        H  0.26292827  0.99546115  0.97751064     0.00400
H261        H  0.28868727  0.09253369  0.52143992     0.14900
H262        H  0.13466905  0.02160854  0.50568754     0.14700
O263        O  0.45009957  0.35051717  0.73434538    -0.85300
O264        O  0.02449176  0.48428022  0.72685479    -0.82400
C265        C  0.11973432  0.96494246  0.71361773     0.98100
O266        O  0.13737483  0.00232754  0.73091774    -0.82400
O267        O  0.06927072  0.04264586  0.71835809    -0.85100
C268        C  0.02371602  0.04080986  0.71396033     1.02700
O269        O  0.41900086  0.09054561  0.73292054    -0.77800
O270        O  0.42490605  0.40969876  0.72245072    -0.78000
C271        C  0.43204129  0.36950803  0.71698694     1.02600
O272        O  0.47326559  0.37689935  0.79137562    -0.85300
O273        O  0.05035000  0.50271850  0.78277075    -0.82400
C274        C  0.12543863  0.97583665  0.78973988     0.98200
O275        O  0.11589421  0.01465911  0.78553223    -0.82400
O276        O  0.05643545  0.06562019  0.77410603    -0.85000
C277        C  0.01665702  0.04512993  0.79078155     1.02600
O278        O  0.41508348  0.07334908  0.79024695    -0.77800
O279        O  0.40268673  0.38424801  0.77787995    -0.78000
C280        C  0.42683317  0.37415448  0.79592688     1.02600
Cr281      Cr  0.51484111  0.39624964  0.75765084     1.93700
Cr282      Cr  0.09053775  0.02695404  0.75229146     1.93200
Cr283      Cr  0.43990446  0.45032130  0.75517845     1.39100
O284        O  0.46165297  0.02933323  0.75668358    -1.23100
C285        C  0.18651041  0.04045531  0.65142489    -0.02000
C286        C  0.17401438  0.99789688  0.63310703     0.06600
C287        C  0.10061054  0.48805099  0.65447098    -0.08000
C288        C  0.08402601  0.48226580  0.68091536     0.04000
C289        C  0.14501433  0.97511428  0.68675412    -0.15200
C290        C  0.17238019  0.02892123  0.67803008    -0.08500
C291        C  0.18453006  0.00789694  0.60459211     0.05000
C292        C  0.20116518  0.54106491  0.61081132    -0.09600
C293        C  0.21604974  0.53335048  0.58523046     0.00000
C294        C  0.20297538  0.01589832  0.54934949    -0.00200
C295        C  0.15298882  0.01009537  0.56068662    -0.13200
C296        C  0.14343448  0.00532263  0.58804402     0.00300
C297        C  0.26749014  0.53117839  0.58188545     0.39600
C298        C  0.09007700  0.99447090  0.59886407     0.36200
C299        C  0.21155396  0.09601050  0.64322467     0.36000
C300        C  0.05172426  0.42776352  0.69052823     0.36700
N301        N  0.30881143  0.52981817  0.57932649    -0.44100
N302        N  0.04748113  0.98502004  0.60809186    -0.44500
N303        N  0.55002973  0.32092532  0.68481243    -0.41900
N304        N  0.23150806  0.14068946  0.63682409    -0.43300
H305        H  0.17993618  0.06204317  0.69171529     0.12800
H306        H  0.08805624  0.45233906  0.64189710     0.09300
H307        H  0.22738082  0.54435902  0.62697591     0.10400
H308        H  0.11993146  0.00602155  0.54842920     0.16200
C309        C  0.22361343  0.01767785  0.91079237    -0.02000
C310        C  0.17226372  0.99485485  0.89875704     0.06600
C311        C  0.07302752  0.49952191  0.92904413    -0.08000
C312        C  0.09156071  0.49487117  0.95392528     0.04000
C313        C  0.17886384  0.00748382  0.95429965    -0.15200
C314        C  0.22670658  0.02656410  0.93789759    -0.08500
C315        C  0.16850286  0.98875481  0.86966217     0.05000
C316        C  0.07127566  0.48344881  0.86575989    -0.09600
C317        C  0.06210894  0.48570269  0.83890579     0.00000
C318        C  0.15101331  0.97647212  0.81495274    -0.00200
C319        C  0.18538605  0.02753634  0.82608235    -0.13200
C320        C  0.19383565  0.03415732  0.85313043     0.00300
C321        C  0.03844255  0.43540317  0.82404070     0.39600
C322        C  0.22632492  0.08846332  0.86345165     0.36200
C323        C  0.27341872  0.02951933  0.89572139     0.36000
C324        C  0.05146183  0.46537245  0.97429813     0.36700
N325        N  0.01930501  0.39486514  0.81229024    -0.44100
N326        N  0.25326494  0.13191786  0.87156221    -0.44500
N327        N  0.03226335  0.42834997  0.48714210    -0.41900
N328        N  0.31231252  0.03814022  0.88298722    -0.43300
H329        H  0.26740168  0.04728641  0.94614565     0.12800
H330        H  0.02914674  0.48040411  0.92543950     0.09300
H331        H  0.06326474  0.44521609  0.87417091     0.10400
H332        H  0.20200345  0.06320829  0.81387064     0.16200
C333        C  0.06176216  0.10632159  0.85771847    -0.02000
C334        C  0.01163402  0.09910658  0.86976584     0.06600
C335        C  0.43592793  0.14977055  0.86371116    -0.08000
C336        C  0.42333692  0.13709680  0.83705810     0.04000
C337        C  0.01661119  0.07359785  0.81578330    -0.15200
C338        C  0.06443824  0.09569922  0.83074077    -0.08500
C339        C  0.00993762  0.11685337  0.89757070     0.05000
C340        C  0.04665621  0.17041987  0.90401975    -0.09600
C341        C  0.04808691  0.19129057  0.92931525     0.00000
C342        C  0.01077636  0.15841569  0.94933054    -0.00200
C343        C  0.48755025  0.14196500  0.94504632    -0.13200
C344        C  0.47758840  0.13490725  0.91796758     0.00300
C345        C  0.08853988  0.24724378  0.93291313     0.39600
C346        C  0.43961052  0.08136383  0.90901413     0.36200
C347        C  0.10983930  0.12112476  0.87326729     0.36000
C348        C  0.36617598  0.10926080  0.82984789     0.36700
N349        N  0.12186587  0.29228075  0.93341689    -0.44100
N350        N  0.40785413  0.03784593  0.90302511    -0.44500
N351        N  0.32055910  0.08687706  0.82371253    -0.41900
N352        N  0.14721135  0.13277656  0.88652342    -0.43300
H353        H  0.10265626  0.09935171  0.82204076     0.12800
H354        H  0.40270565  0.13841644  0.87829086     0.09300
H355        H  0.07432436  0.19674232  0.88881664     0.10400
H356        H  0.46565871  0.10781024  0.95802458     0.16200
C357        C  0.06114174  0.11020897  0.64757085    -0.02000
C358        C  0.00937338  0.09230868  0.63622091     0.06600
C359        C  0.40863125  0.11235052  0.64757743    -0.08000
C360        C  0.40564558  0.10399945  0.67488939     0.04000
C361        C  0.01680703  0.06064269  0.68800893    -0.15200
C362        C  0.06458467  0.09426538  0.67303180    -0.08500
C363        C  0.00497661  0.11083486  0.60955948     0.05000
C364        C  0.02629844  0.09566815  0.58713384    -0.09600
C365        C  0.02820211  0.11700344  0.56211196     0.00000
C366        C  0.00719038  0.15399060  0.55901062    -0.00200
C367        C  0.43310634  0.17659253  0.56513313    -0.13200
C368        C  0.42510074  0.16520418  0.59193039     0.00300
C369        C  0.05657884  0.10346338  0.54119865     0.39600
C370        C  0.37909749  0.16784408  0.60509868     0.36200
C371        C  0.11106080  0.14655781  0.63351214     0.36000
C372        C  0.35264785  0.06813485  0.68675379     0.36700
N373        N  0.09401828  0.16052808  0.03734719    -0.44100
N374        N  0.34091570  0.16873946  0.61486869    -0.44500
N375        N  0.30988082  0.03935373  0.69599695    -0.41900
N376        N  0.14997884  0.17586731  0.62159738    -0.43300
H377        H  0.10505629  0.10825294  0.68118465     0.12800
H378        H  0.37175254  0.08999778  0.63623364     0.09300
H379        H  0.04367385  0.06861462  0.58938810     0.10400
H380        H  0.40750909  0.19209220  0.55732255     0.16200
C381        C  0.31583875  0.35498102  0.91632101    -0.02000
C382        C  0.35543820  0.34126118  0.90530824     0.06600
C383        C  0.38970935  0.33253973  0.92226724    -0.08000
C384        C  0.38289686  0.33447243  0.94960906     0.04000
C385        C  0.33983960  0.34279317  0.96047881    -0.15200
C386        C  0.30748664  0.35423053  0.94364003    -0.08500
C387        C  0.36964698  0.34616057  0.87672864     0.05000
C388        C  0.42275810  0.38520067  0.86990092    -0.09600
C389        C  0.43938779  0.39669482  0.84385447     0.00000
C390        C  0.40492440  0.36499205  0.82337542    -0.00200
C391        C  0.35098956  0.32522992  0.82988521    -0.13200
C392        C  0.33271288  0.31631496  0.85650049     0.00300
C393        C  0.48809559  0.44711810  0.83953730     0.39600
C394        C  0.27648477  0.27680088  0.86249140     0.36200
C395        C  0.28449455  0.37157178  0.90022010     0.36000
C396        C  0.42046657  0.32790895  0.96618186     0.36700
N397        N  0.47672545  0.06025382  0.84191385    -0.44100
N398        N  0.23102274  0.24587072  0.86722096    -0.44500
N399        N  0.45136067  0.32401699  0.97959488    -0.41900
N400        N  0.25945824  0.38512664  0.88739598    -0.43300
H401        H  0.27434015  0.36091196  0.95170777     0.12800
H402        H  0.42255179  0.32512501  0.91406195     0.09300
H403        H  0.45078386  0.40925386  0.88519077     0.10400
H404        H  0.32342678  0.30142965  0.81436181     0.16200
C405        C  0.32408016  0.28461685  0.60452482    -0.02000
C406        C  0.38022008  0.30181737  0.60853335     0.06600
C407        C  0.41598734  0.31172143  0.58661722    -0.08000
C408        C  0.39688771  0.30769522  0.56088293     0.04000
C409        C  0.34147913  0.29624825  0.55682733    -0.15200
C410        C  0.30511488  0.28084966  0.57905976    -0.08500
C411        C  0.40253566  0.32031155  0.63521786     0.05000
C412        C  0.40691650  0.28497954  0.65297005    -0.09600
C413        C  0.41673269  0.29914069  0.67986615     0.00000
C414        C  0.42231833  0.34952596  0.68914087    -0.00200
C415        C  0.42086209  0.38548759  0.67069757    -0.13200
C416        C  0.41075804  0.37132709  0.64428351     0.00300
C417        C  0.41898872  0.26071733  0.69738737     0.39600
C418        C  0.40594966  0.40894300  0.62703545     0.36200
C419        C  0.28580643  0.27389781  0.62658470     0.36000
C420        C  0.43516520  0.31507174  0.53928793     0.36700
N421        N  0.42097271  0.22978350  0.71130428    -0.44100
N422        N  0.40179168  0.43886166  0.61324942    -0.44500
N423        N  0.46628529  0.32122926  0.52211073    -0.41900
N424        N  0.25589995  0.26608083  0.64449695    -0.43300
H425        H  0.26127160  0.26577658  0.57687249     0.12800
H426        H  0.45921672  0.32427250  0.58966161     0.09300
H427        H  0.40100700  0.24578411  0.64614037     0.10400
H428        H  0.42688240  0.42526124  0.67686218     0.16200
C429        C  0.31327003  0.70068931  0.49352995     0.80200
N430        N  0.27209669  0.63726950  0.98321099    -0.78100
C431        C  0.29892021  0.60664945  0.98126913     0.82700
N432        N  0.35526716  0.63292847  0.98078730    -0.78000
C433        C  0.39512724  0.69248232  0.49722276     0.82800
N434        N  0.36906813  0.72344401  0.49693313    -0.79700
C435        C  0.20046016  0.81464922  0.00127058     0.80200
N436        N  0.14486796  0.78345128  0.00282955    -0.78100
C437        C  0.11037720  0.80596713  0.00482419     0.82700
N438        N  0.13250254  0.86077740  0.00565097    -0.78000
C439        C  0.18845594  0.89349983  0.00404348     0.82800
N440        N  0.22214119  0.86997314  0.00269562    -0.79700
C441        C  0.31458370  0.79624881  0.03037537     0.86500
C442        C  0.29603327  0.73765724  0.02217339    -0.53700
C443        C  0.27532473  0.72340381  0.99765510     0.09400
C444        C  0.27020505  0.76824846  0.48305219     0.20400
C445        C  0.34956705  0.83151683  0.00651279    -0.54500
C446        C  0.32335795  0.82158262  0.48158222     0.09500
C447        C  0.26239424  0.80258587  0.02998183    -0.54000
C448        C  0.23615351  0.78923597  0.00669138     0.10100
H449        H  0.31011518  0.71330356  0.03267415     0.14600
H450        H  0.25525706  0.74778545  0.46372095     0.00400
H451        H  0.38955944  0.86708666  0.00824066     0.14900
H452        H  0.25172718  0.82394514  0.04544561     0.14700
C453        C  0.99933731  0.67996191  0.03081173     0.86500
C454        C  0.04589994  0.73767929  0.03301379    -0.53700
C455        C  0.05146109  0.77049126  0.01280471     0.09400
C456        C  0.00185467  0.73794296  0.47557501     0.20400
C457        C  0.44354231  0.69829651  0.01630537    -0.54500
C458        C  0.44127653  0.71427869  0.99177893     0.09500
C459        C  0.00711750  0.66055433  0.00220549    -0.54000
C460        C  0.01289753  0.68978495  0.47375195     0.10100
H461        H  0.07854833  0.74834158  0.04707546     0.14600
H462        H  0.00013443  0.75517217  0.45654301     0.00400
H463        H  0.40683818  0.67809058  0.02894853     0.16800
H464        H  0.00826885  0.62346813  0.99724274     0.14700
C465        C  0.20036942  0.50828314  0.02781941     0.86500
C466        C  0.18314491  0.96093897  0.03254359    -0.53700
C467        C  0.21032949  0.95221807  0.01178512     0.09400
C468        C  0.23864799  0.50252678  0.49139957     0.20400
C469        C  0.25672451  0.55222039  0.01852576    -0.54500
C470        C  0.26917173  0.55054932  0.99250306     0.09500
C471        C  0.15970580  0.51185662  0.00805731    -0.54000
C472        C  0.18543336  0.50571054  0.48771871     0.10100
H473        H  0.15866899  0.92939003  0.04660641     0.14600
H474        H  0.25830157  0.49551615  0.47326879     0.00400
H475        H  0.27986660  0.58820709  0.03068571     0.14900
H476        H  0.12729002  0.52193442  0.01374430     0.14700
O477        O  0.47283207  0.85987366  0.23031522    -0.85300
O478        O  0.99603383  0.97115827  0.22171111    -0.82400
C479        C  0.09664845  0.46298145  0.21977005     0.98100
O480        O  0.11156420  0.50071270  0.23683177    -0.82400
O481        O  0.04541426  0.53899306  0.21846666    -0.85100
C482        C  0.00153850  0.53918426  0.21253081     1.02700
O483        O  0.43530523  0.59496067  0.23321427    -0.77800
O484        O  0.45268674  0.92306058  0.21922092    -0.78000
C485        C  0.45486010  0.88024323  0.21368178     1.02600
O486        O  0.49997495  0.88361916  0.28675492    -0.85300
O487        O  0.03763806  0.99229463  0.27527721    -0.82400
C488        C  0.08804622  0.47720273  0.29588479     0.98200
O489        O  0.08046970  0.51624189  0.28940056    -0.82400
O490        O  0.02369558  0.56636838  0.27150710    -0.85000
C491        C  0.98418491  0.54696118  0.28834271     1.02600
O492        O  0.42337848  0.57901305  0.29070648    -0.77800
O493        O  0.43115005  0.89556153  0.27459937    -0.78000
C494        C  0.45430729  0.88224818  0.29191681     1.02600
Cr495      Cr  0.54003992  0.90312886  0.25251589     1.93700
Cr496      Cr  0.06128510  0.52645080  0.25409001     1.93200
Cr497      Cr  0.47000896  0.96246967  0.25237034     1.39100
O498        O  0.47356718  0.53393067  0.25996459    -1.23100
C499        C  0.18026823  0.53710558  0.16014490    -0.02000
C500        C  0.16044070  0.49534662  0.14100879     0.06600
C501        C  0.04430251  0.97653719  0.14204569    -0.08000
C502        C  0.03369770  0.97054070  0.16911777     0.04000
C503        C  0.12636577  0.47161307  0.19400385    -0.15200
C504        C  0.16295918  0.52505279  0.18646485    -0.08500
C505        C  0.17208649  0.50608548  0.11266794     0.05000
C506        C  0.15189113  0.02905251  0.10510790    -0.09600
C507        C  0.17643064  0.02323526  0.08180523     0.00000
C508        C  0.19171022  0.51211826  0.05756858    -0.00200
C509        C  0.14143458  0.50656030  0.06838668    -0.13200
C510        C  0.13114560  0.50250912  0.09567641     0.00300
C511        C  0.22714600  0.02007095  0.08411106     0.39600
C512        C  0.07725601  0.49150434  0.10591477     0.36200
C513        C  0.21634403  0.59266074  0.15305445     0.36000
C514        C  0.00347162  0.91583521  0.17875957     0.36700
N515        N  0.26772875  0.01767655  0.08603883    -0.44100
N516        N  0.03412955  0.48192957  0.11450723    -0.44500
N517        N  0.59518287  0.82970233  0.18289539    -0.41900
N518        N  0.24551265  0.63718857  0.14745619    -0.43300
H519        H  0.17550270  0.55800805  0.20077107     0.12800
H520        H  0.03098851  0.94081445  0.12941196     0.09300
H521        H  0.17111308  0.03104688  0.12369813     0.10400
H522        H  0.10865414  0.50199825  0.05579682     0.16200
C523        C  0.19690749  0.52152972  0.41409054    -0.02000
C524        C  0.14203035  0.49111282  0.40602311     0.06600
C525        C  0.07941436  0.99237604  0.41971897    -0.08000
C526        C  0.09819683  0.99004698  0.44497547     0.04000
C527        C  0.16684188  0.50499654  0.46032342    -0.15200
C528        C  0.20837976  0.52987147  0.44078878    -0.08500
C529        C  0.12919601  0.48669119  0.37752679     0.05000
C530        C  0.07652579  0.97611622  0.35628508    -0.09600
C531        C  0.06424423  0.97774371  0.32976168     0.00000
C532        C  0.10967284  0.47915253  0.32267898    -0.00200
C533        C  0.13433094  0.52973208  0.33593657    -0.13200
C534        C  0.14226094  0.53350424  0.36306897     0.00300
C535        C  0.04038129  0.92743715  0.31492956     0.39600
C536        C  0.16128016  0.58554631  0.37614569     0.36200
C537        C  0.24267247  0.54294551  0.39526985     0.36000
C538        C  0.05869529  0.95973881  0.46540173     0.36700
N539        N  0.02126594  0.88696096  0.30313121    -0.44100
N540        N  0.17636226  0.62648725  0.38732520    -0.44500
N541        N  0.03520091  0.95528334  0.96892954    -0.41900
N542        N  0.27923174  0.55981990  0.38016982    -0.43300
H543        H  0.25094182  0.55461990  0.44627641     0.12800
H544        H  0.03559263  0.97125570  0.41592177     0.09300
H545        H  0.06984947  0.93816853  0.36451724     0.10400
H546        H  0.14388229  0.56639038  0.32543744     0.16200
C547        C  0.04568833  0.63291679  0.34793878    -0.02000
C548        C  0.00054750  0.61219309  0.36630841     0.06600
C549        C  0.43356212  0.65600512  0.36218163    -0.08000
C550        C  0.42455669  0.64485917  0.33518008     0.04000
C551        C  0.98586614  0.57671167  0.31313007    -0.15200
C552        C  0.03769950  0.61584744  0.32165451    -0.08500
C553        C  0.00721734  0.62936367  0.39457870     0.05000
C554        C  0.03647574  0.68460624  0.40015049    -0.09600
C555        C  0.04564560  0.70442314  0.42581047     0.00000
C556        C  0.01999214  0.66891104  0.44731226    -0.00200
C557        C  0.47467380  0.63679326  0.44479702    -0.13200
C558        C  0.46401998  0.63322633  0.41772700     0.00300
C559        C  0.08166519  0.76193176  0.42815486     0.39600
C560        C  0.41908820  0.58367042  0.40803062     0.36200
C561        C  0.10127032  0.67061019  0.35533848     0.36000
C562        C  0.36845279  0.61809031  0.32626989     0.36700
N563        N  0.11078093  0.80815665  0.42756937    -0.44100
N564        N  0.38171543  0.54435526  0.40078412    -0.44500
N565        N  0.32347465  0.59660524  0.31914262    -0.41900
N566        N  0.14563695  0.70199495  0.36092269    -0.43300
H567        H  0.07329682  0.62998489  0.30828534     0.12800
H568        H  0.39850159  0.64525382  0.37559719     0.09300
H569        H  0.05208852  0.71318801  0.38412586     0.10400
H570        H  0.44852859  0.60324664  0.45744344     0.16200
C571        C  0.04647320  0.59741972  0.14420085    -0.02000
C572        C  0.99646230  0.58843606  0.13337997     0.06600
C573        C  0.42612345  0.62845811  0.15007395    -0.08000
C574        C  0.42527227  0.61851123  0.17716044     0.04000
C575        C  0.99817912  0.55770829  0.18578569    -0.15200
C576        C  0.04700316  0.58224881  0.17010409    -0.08500
C577        C  0.99499881  0.60875127  0.10697104     0.05000
C578        C  0.00377988  0.58405676  0.08414910    -0.09600
C579        C  0.00438983  0.60383988  0.05891033     0.00000
C580        C  0.99640643  0.65003054  0.05630254    -0.00200
C581        C  0.49932060  0.72222204  0.07167641    -0.13200
C582        C  0.49183796  0.70982423  0.09838876     0.00300
C583        C  0.01408610  0.57550456  0.03694586     0.39600
C584        C  0.50218714  0.75271005  0.11743602     0.36200
C585        C  0.09793900  0.62293696  0.12925923     0.36000
C586        C  0.37358884  0.60002963  0.19167709     0.36700
N587        N  0.94329441  0.54687646  0.52569657    -0.44100
N588        N  0.51112979  0.78740405  0.13257036    -0.44500
N589        N  0.33190435  0.58509878  0.20312524    -0.41900
N590        N  0.13918740  0.64316188  0.11729962    -0.43300
H591        H  0.08608125  0.58960332  0.17800137     0.12800
H592        H  0.38892545  0.62341338  0.14094469     0.09300
H593        H  0.01042535  0.54919238  0.08609406     0.10400
H594        H  0.50905032  0.76301820  0.06642031     0.16200
C595        C  0.32798910  0.84918851  0.40953964    -0.02000
C596        C  0.37493266  0.84497063  0.40062110     0.06600
C597        C  0.40993143  0.84210909  0.41936689    -0.08000
C598        C  0.39717447  0.84055110  0.44644177     0.04000
C599        C  0.34854468  0.84157197  0.45520009    -0.15200
C600        C  0.31503423  0.84688919  0.43651121    -0.08500
C601        C  0.39268320  0.85115892  0.37232736     0.05000
C602        C  0.44335902  0.89529762  0.36602485    -0.09600
C603        C  0.46296954  0.90530874  0.34011795     0.00000
C604        C  0.43189571  0.87104328  0.31933418    -0.00200
C605        C  0.38062515  0.82640688  0.32541427    -0.13200
C606        C  0.36109700  0.81588279  0.35180410     0.00300
C607        C  0.51466982  0.95290330  0.33594757     0.39600
C608        C  0.30983192  0.76793269  0.35738451     0.36200
C609        C  0.29299141  0.85695747  0.39154783     0.36000
C610        C  0.43342148  0.83586786  0.46473429     0.36700
N611        N  0.47942477  0.56878971  0.34276557    -0.44100
N612        N  0.26872382  0.72933814  0.36177166    -0.44500
N613        N  0.46290437  0.83271725  0.47939869    -0.41900
N614        N  0.26485899  0.86322335  0.37720008    -0.43300
H615        H  0.27719823  0.84708474  0.44288610     0.12800
H616        H  0.44722081  0.84074107  0.41276800     0.09300
H617        H  0.46766622  0.92284260  0.38157517     0.10400
H618        H  0.35653695  0.79932449  0.30973446     0.16200
C619        C  0.32479558  0.79358337  0.10515197    -0.02000
C620        C  0.38040327  0.80779656  0.10838563     0.06600
C621        C  0.41533853  0.81776487  0.08617030    -0.08000
C622        C  0.39591676  0.81575149  0.06080113     0.04000
C623        C  0.34086754  0.80604407  0.05742179    -0.15200
C624        C  0.30542553  0.79194206  0.08001084    -0.08500
C625        C  0.40470789  0.82482851  0.13459707     0.05000
C626        C  0.40084282  0.78674452  0.15308535    -0.09600
C627        C  0.41804512  0.80306598  0.17911651     0.00000
C628        C  0.43899967  0.85812324  0.18661657    -0.00200
C629        C  0.44423898  0.89574694  0.16748567    -0.13200
C630        C  0.42628340  0.87954081  0.14204060     0.00300
C631        C  0.41118990  0.76253978  0.19782917     0.39600
C632        C  0.42638360  0.91918228  0.12440581     0.36200
C633        C  0.28733655  0.78276098  0.12756928     0.36000
C634        C  0.43357892  0.82296875  0.03893662     0.36700
N635        N  0.40548266  0.72992389  0.21283318    -0.44100
N636        N  0.42561904  0.95041775  0.11026893    -0.44500
N637        N  0.46456633  0.82910063  0.02169880    -0.41900
N638        N  0.25753853  0.77432468  0.14558021    -0.43300
H639        H  0.26174501  0.77846720  0.07831060     0.12800
H640        H  0.45834807  0.82868018  0.08876457     0.09300
H641        H  0.38309274  0.74431871  0.14736797     0.10400
H642        H  0.46120227  0.93840177  0.17255189     0.16200
C643        C  0.30014303  0.69246391  0.98297371     0.80200
N644        N  0.28337878  0.64546788  0.49215359    -0.78100
C645        C  0.30832798  0.61304353  0.49283419     0.82700
N646        N  0.36396104  0.63744298  0.49527748    -0.78000
C647        C  0.38477872  0.68832891  0.98038956     0.82800
N648        N  0.35653426  0.71716398  0.98159959    -0.79700
C649        C  0.19723471  0.80933564  0.48450081     0.80200
N650        N  0.14111378  0.78217214  0.48618898    -0.78100
C651        C  0.10994227  0.80818672  0.48420469     0.82700
N652        N  0.13633888  0.86314166  0.48146921    -0.78000
C653        C  0.19282179  0.89174262  0.47933279     0.82800
N654        N  0.22238521  0.86438867  0.48171629    -0.79700
C655        C  0.30240516  0.81298958  0.52942760     0.86500
C656        C  0.29801959  0.75688610  0.52631700    -0.53700
C657        C  0.28499368  0.73387264  0.50184514     0.09400
C658        C  0.26461063  0.76808165  0.98560191     0.20400
C659        C  0.34115592  0.84612331  0.50588167    -0.54500
C660        C  0.32213494  0.81613283  0.98308305     0.09500
C661        C  0.24600064  0.80592740  0.52178952    -0.54000
C662        C  0.22917229  0.78530275  0.49728967     0.10100
H663        H  0.31382908  0.74100422  0.54116181     0.14600
H664        H  0.24192804  0.75484499  0.96688193     0.00400
H665        H  0.37747284  0.88522935  0.50800566     0.14900
H666        H  0.22712679  0.82764330  0.53229985     0.14700
C667        C  0.00094483  0.70017050  0.52186912     0.86500
C668        C  0.04539874  0.75886775  0.51791714    -0.53700
C669        C  0.05022478  0.77847996  0.49332491     0.09400
C670        C  0.00332097  0.74299663  0.99306392     0.20400
C671        C  0.44926338  0.68332100  0.53057950    -0.54500
C672        C  0.45009459  0.71376377  0.51010311     0.09500
C673        C  0.01248388  0.66889197  0.49820676    -0.54000
C674        C  0.00997857  0.69507664  0.98256417     0.10100
H675        H  0.07915948  0.77805630  0.53159317     0.14600
H676        H  0.00432177  0.77094555  0.97784196     0.00400
H677        H  0.41119748  0.65759544  0.54140665     0.16800
H678        H  0.02132884  0.63547119  0.50032847     0.14700
C679        C  0.19775140  0.51745444  0.53595518     0.86500
C680        C  0.21130167  0.95890944  0.51300772    -0.53700
C681        C  0.21985339  0.95052928  0.48731299     0.09400
C682        C  0.22370117  0.49846038  0.97847897     0.20400
C683        C  0.25483809  0.56256096  0.52915536    -0.54500
C684        C  0.27596576  0.55837353  0.50529217     0.09500
C685        C  0.16293352  0.51354616  0.51129756    -0.54000
C686        C  0.17273382  0.50690804  0.98192409     0.10100
H687        H  0.19800711  0.92686722  0.52742768     0.14600
H688        H  0.23512903  0.49331563  0.95779958     0.00400
H689        H  0.27261091  0.60032685  0.54056546     0.14900
H690        H  0.12652947  0.51905290  0.51202504     0.14700
O691        O  0.39586388  0.92262882  0.73810650    -0.85300
O692        O  0.07770403  0.92069701  0.71859085    -0.82400
C693        C  0.06996630  0.52524420  0.72283656     0.98100
O694        O  0.08742601  0.56375568  0.73964123    -0.82400
O695        O  0.02497788  0.60609233  0.72176152    -0.85100
C696        C  0.98154879  0.60627365  0.71490725     1.02700
O697        O  0.46321585  0.51523362  0.73176908    -0.77800
O698        O  0.37422861  0.98359548  0.72560977    -0.78000
C699        C  0.37777073  0.94113550  0.72073485     1.02600
O700        O  0.43147477  0.95070861  0.79185975    -0.85300
O701        O  0.11023707  0.93634712  0.77357077    -0.82400
C702        C  0.06054805  0.54033909  0.79972825     0.98200
O703        O  0.05636505  0.58140049  0.79339420    -0.82400
O704        O  0.00576182  0.63665469  0.77396670    -0.85000
C705        C  0.96587703  0.62023251  0.79053300     1.02600
O706        O  0.45155035  0.49146767  0.78804119    -0.77800
O707        O  0.36118422  0.96428981  0.78331064    -0.78000
C708        C  0.38609647  0.94820484  0.79852937     1.02600
Cr709      Cr  0.46621917  0.96819565  0.75723208     1.93700
Cr710      Cr  0.03961405  0.59276699  0.75738817     1.93200
Cr711      Cr  0.39639301  0.02779644  0.75802916     1.39100
O712        O  0.50672738  0.45528482  0.75597544    -1.23100
C713        C  0.15321053  0.58545597  0.66054246    -0.02000
C714        C  0.13374559  0.53923665  0.64397632     0.06600
C715        C  0.14985917  0.94441794  0.64182651    -0.08000
C716        C  0.13516905  0.93260864  0.66840959     0.04000
C717        C  0.09904567  0.52888631  0.69726665    -0.15200
C718        C  0.13507653  0.58014056  0.68697822    -0.08500
C719        C  0.15152836  0.54162412  0.61615108     0.05000
C720        C  0.23498460  0.01588817  0.59378859    -0.09600
C721        C  0.24439185  0.01898792  0.56658645     0.00000
C722        C  0.18105381  0.52707278  0.56383575    -0.00200
C723        C  0.13172843  0.52947832  0.56935791    -0.13200
C724        C  0.11660479  0.53610451  0.59537484     0.00300
C725        C  0.29623420  0.02246232  0.55713116     0.39600
C726        C  0.06436173  0.53541014  0.60056121     0.36200
C727        C  0.19141609  0.63838499  0.65076059     0.36000
C728        C  0.10934557  0.87658242  0.67613908     0.36700
N729        N  0.33779817  0.02531366  0.54968517    -0.44100
N730        N  0.02240763  0.53456967  0.60494699    -0.44500
N731        N  0.48848967  0.88106648  0.69001639    -0.41900
N732        N  0.22250106  0.68070337  0.64294766    -0.43300
H733        H  0.14740028  0.61619251  0.69922855     0.12800
H734        H  0.14114674  0.91173759  0.62767293     0.09300
H735        H  0.26631915  0.01733917  0.60665775     0.10400
H736        H  0.10400829  0.52471166  0.55378765     0.16200
C737        C  0.16776592  0.55344299  0.91358601    -0.02000
C738        C  0.11093893  0.52814213  0.90863869     0.06600
C739        C  0.12423370  0.97946075  0.91452859    -0.08000
C740        C  0.12699365  0.98515714  0.94214717     0.04000
C741        C  0.14875345  0.51787807  0.95828542    -0.15200
C742        C  0.18585752  0.54830160  0.93803527    -0.08500
C743        C  0.09211067  0.53016400  0.88177722     0.05000
C744        C  0.13871453  0.93694798  0.85833562    -0.09600
C745        C  0.13008823  0.93028988  0.83112262     0.00000
C746        C  0.07486354  0.53598011  0.82739836    -0.00200
C747        C  0.09520556  0.58259753  0.84382509    -0.13200
C748        C  0.10257967  0.57974320  0.87077000     0.00300
C749        C  0.09500060  0.87638833  0.82106069     0.39600
C750        C  0.12089281  0.62804672  0.88704936     0.36200
C751        C  0.20877108  0.58303034  0.89341090     0.36000
C752        C  0.07613925  0.96800162  0.95712345     0.36700
N753        N  0.06675511  0.83289003  0.81335744    -0.44100
N754        N  0.13552713  0.66601824  0.90061149    -0.44500
N755        N  0.02765145  0.93642041  0.48221923    -0.41900
N756        N  0.24142368  0.60689744  0.87724354    -0.43300
H757        H  0.22986073  0.56712600  0.94082778     0.12800
H758        H  0.08450283  0.96261977  0.90522485     0.09300
H759        H  0.12040985  0.90184622  0.87093696     0.10400
H760        H  0.10390226  0.62133773  0.83580412     0.16200
C761        C  0.03012847  0.69594971  0.85160227    -0.02000
C762        C  0.98385107  0.67583557  0.86939668     0.06600
C763        C  0.45993770  0.56579919  0.86212508    -0.08000
C764        C  0.45001086  0.54614370  0.83617894     0.04000
C765        C  0.96965920  0.65216990  0.81489062    -0.15200
C766        C  0.02245807  0.68479383  0.82465269    -0.08500
C767        C  0.99026514  0.67823757  0.89866408     0.05000
C768        C  0.02888544  0.72683442  0.91003465    -0.09600
C769        C  0.04183813  0.73051951  0.93646481     0.00000
C770        C  0.01121364  0.68638731  0.95349187    -0.00200
C771        C  0.50386585  0.61451052  0.94487093    -0.13200
C772        C  0.50359513  0.59297378  0.91947646     0.00300
C773        C  0.08828273  0.78057593  0.94451215     0.39600
C774        C  0.48667098  0.53595566  0.91692674     0.36200
C775        C  0.08642418  0.72509751  0.86010860     0.36000
C776        C  0.39556436  0.50270056  0.83063587     0.36700
N777        N  0.12664851  0.82181511  0.94851736    -0.44100
N778        N  0.47318598  0.49015597  0.91550193    -0.44500
N779        N  0.35203768  0.46754861  0.82643038    -0.41900
N780        N  0.13167501  0.74978005  0.86659638    -0.43300
H781        H  0.05846736  0.69631091  0.81174823     0.12800
H782        H  0.42656287  0.54934034  0.87674466     0.09300
H783        H  0.04988686  0.76268337  0.89805559     0.10400
H784        H  0.48803126  0.58735953  0.96143442     0.16200
C785        C  0.03097653  0.65529172  0.64552556    -0.02000
C786        C  0.98197141  0.64485578  0.63320697     0.06600
C787        C  0.44475017  0.55864691  0.65217692    -0.08000
C788        C  0.44669954  0.54353168  0.67808927     0.04000
C789        C  0.98036989  0.62384076  0.68754153    -0.15200
C790        C  0.02987610  0.64466366  0.67227112    -0.08500
C791        C  0.98296665  0.65717237  0.60497328     0.05000
C792        C  0.97069428  0.61639747  0.58570151    -0.09600
C793        C  0.97675784  0.62832605  0.55868469     0.00000
C794        C  0.99731142  0.68267643  0.55057978    -0.00200
C795        C  0.48293134  0.66667964  0.58188597    -0.13200
C796        C  0.47973779  0.64525842  0.60666903     0.00300
C797        C  0.95850648  0.58344773  0.54022020     0.39600
C798        C  0.46827258  0.67107507  0.62935939     0.36200
C799        C  0.08294748  0.67697066  0.63095095     0.36000
C800        C  0.39608491  0.52049568  0.69369021     0.36700
N801        N  0.02184953  0.55112530  0.02001496    -0.44100
N802        N  0.45888593  0.69170910  0.64748363    -0.44500
N803        N  0.35537635  0.50213649  0.70611465    -0.41900
N804        N  0.12430378  0.69460681  0.61905885    -0.43300
H805        H  0.06816915  0.65199876  0.68106639     0.12800
H806        H  0.40600347  0.55329674  0.64473553     0.09300
H807        H  0.95620675  0.57509465  0.59179501     0.10400
H808        H  0.47676418  0.70205132  0.58080819     0.16200
C809        C  0.30402002  0.86907144  0.91972525    -0.02000
C810        C  0.34651266  0.86855348  0.90371725     0.06600
C811        C  0.38708383  0.85939518  0.91514820    -0.08000
C812        C  0.38333974  0.84693924  0.94194491     0.04000
C813        C  0.33905426  0.84466556  0.95765697    -0.15200
C814        C  0.30100062  0.85768642  0.94638910    -0.08500
C815        C  0.35375466  0.88606743  0.87610602     0.05000
C816        C  0.39519548  0.93810852  0.87094078    -0.09600
C817        C  0.40063226  0.96075058  0.84641533     0.00000
C818        C  0.36667479  0.92996417  0.82558122    -0.00200
C819        C  0.32562274  0.87662519  0.83041499    -0.13200
C820        C  0.31849216  0.85468941  0.85574350     0.00300
C821        C  0.44272822  0.01580412  0.84324953     0.39600
C822        C  0.27800606  0.79902806  0.86003513     0.36200
C823        C  0.26290093  0.88103671  0.90924803     0.36000
C824        C  0.42394604  0.83460580  0.95241555     0.36700
N825        N  0.52531614  0.48995174  0.83861371    -0.44100
N826        N  0.24621829  0.75417122  0.86354868    -0.44500
N827        N  0.45713874  0.82515436  0.96050383    -0.41900
N828        N  0.22978791  0.89037828  0.90089752    -0.43300
H829        H  0.26683352  0.85625393  0.95814864     0.12800
H830        H  0.42124797  0.86134326  0.90301372     0.09300
H831        H  0.42346611  0.96123033  0.88635160     0.10400
H832        H  0.30121736  0.85150867  0.81428897     0.16200
C833        C  0.28488682  0.83927080  0.60334433    -0.02000
C834        C  0.33908864  0.86345340  0.61229957     0.06600
C835        C  0.38238646  0.87229792  0.59431175    -0.08000
C836        C  0.37225006  0.85739922  0.56753058     0.04000
C837        C  0.31771098  0.83459380  0.55798439    -0.15200
C838        C  0.27456984  0.82372561  0.57689787    -0.08500
C839        C  0.35111075  0.88275760  0.64005708     0.05000
C840        C  0.34266631  0.84608359  0.66021672    -0.09600
C841        C  0.35064002  0.86332434  0.68680509     0.00000
C842        C  0.36630246  0.91794642  0.69346875    -0.00200
C843        C  0.37555730  0.95424941  0.67297109    -0.13200
C844        C  0.36770632  0.93721031  0.64665277     0.00300
C845        C  0.34212223  0.82428088  0.70669064     0.39600
C846        C  0.37577886  0.97604086  0.62666421     0.36200
C847        C  0.23905627  0.83116529  0.62086072     0.36000
C848        C  0.41864742  0.86443375  0.55083813     0.36700
N849        N  0.33558129  0.79296644  0.72260314    -0.44100
N850        N  0.38181310  0.00659335  0.61043936    -0.44500
N851        N  0.45648930  0.87037237  0.53783969    -0.41900
N852        N  0.20239388  0.82521077  0.63477477    -0.43300
H853        H  0.23174999  0.80169512  0.57153433     0.12800
H854        H  0.42430067  0.89077448  0.60128210     0.09300
H855        H  0.32955129  0.80394261  0.65515554     0.10400
H856        H  0.39035458  0.99673803  0.67742910     0.16200
C857        C  0.81269619  0.19540579  0.49479718     0.80200
N858        N  0.77300691  0.13956568  0.97664676    -0.78100
C859        C  0.80082574  0.11007824  0.97277539     0.82700
N860        N  0.85709391  0.13751022  0.97110821    -0.78000
C861        C  0.89584302  0.18908151  0.49812961     0.82800
N862        N  0.86877079  0.21910447  0.49755451    -0.79700
C863        C  0.69933447  0.31493439  0.00154472     0.80200
N864        N  0.64362256  0.28566684  0.00395690    -0.78100
C865        C  0.61095380  0.31009703  0.00718649     0.82700
N866        N  0.63519653  0.36517193  0.00839624    -0.78000
C867        C  0.69132349  0.39598022  0.00553673     0.82800
N868        N  0.72309505  0.37039964  0.00307538    -0.79700
C869        C  0.81246384  0.29255653  0.02863139     0.86500
C870        C  0.79581302  0.23546458  0.01839769    -0.53700
C871        C  0.77503472  0.22392358  0.99376979     0.09400
C872        C  0.76558450  0.26123704  0.48668511     0.20400
C873        C  0.84712830  0.33137911  0.00579552    -0.54500
C874        C  0.81770765  0.31509083  0.48428031     0.09500
C875        C  0.75920699  0.29731222  0.02917193    -0.54000
C876        C  0.73354537  0.28713940  0.00575200     0.10100
H877        H  0.81100494  0.21066651  0.02763469     0.14600
H878        H  0.74847299  0.24085785  0.46758337     0.00400
H879        H  0.88669789  0.36714517  0.00824464     0.14900
H880        H  0.74765744  0.31594629  0.04562200     0.14700
C881        C  0.50660610  0.18394368  0.03305892     0.86500
C882        C  0.54773246  0.24379785  0.03617464    -0.53700
C883        C  0.55183461  0.27552270  0.01564678     0.09400
C884        C  0.50271131  0.23282989  0.47349208     0.20400
C885        C  0.93278388  0.19797513  0.01127944    -0.54500
C886        C  0.93911394  0.21693988  0.98652141     0.09500
C887        C  0.51826336  0.16763357  0.00446294    -0.54000
C888        C  0.50806923  0.18109161  0.47374194     0.10100
H889        H  0.58011791  0.25691702  0.05058762     0.14600
H890        H  0.50890896  0.25174622  0.45395143     0.00400
H891        H  0.89141579  0.17539375  0.01970778     0.16800
H892        H  0.52297354  0.13237961  0.99941732     0.14700
C893        C  0.70832169  0.01010747  0.02023348     0.86500
C894        C  0.69834621  0.46651743  0.03597768    -0.53700
C895        C  0.71665731  0.45528709  0.01267427     0.09400
C896        C  0.74154023  0.99813271  0.49271381     0.20400
C897        C  0.76316161  0.05516528  0.01023212    -0.54500
C898        C  0.77389676  0.05382707  0.98399699     0.09500
C899        C  0.66507560  0.01147823  0.00112623    -0.54000
C900        C  0.69197101  0.00451297  0.48450068     0.10100
H901        H  0.67926585  0.43637009  0.05128210     0.14600
H902        H  0.76547816  0.98979664  0.47692364     0.00400
H903        H  0.78619930  0.09138601  0.02226607     0.14900
H904        H  0.63164357  0.01958304  0.00746774     0.14700
O905        O  0.94536636  0.35786058  0.23254821    -0.85300
O906        O  0.51749280  0.48798191  0.22743228    -0.82400
C907        C  0.62471846  0.96310629  0.21427770     0.98100
O908        O  0.64219953  0.00024621  0.23166981    -0.82400
O909        O  0.57786382  0.04423519  0.21678831    -0.85100
C910        C  0.53351890  0.04500859  0.21234028     1.02700
O911        O  0.91768368  0.08313629  0.23278146    -0.77800
O912        O  0.92166491  0.41774051  0.22014744    -0.78000
C913        C  0.92834728  0.37724870  0.21495409     1.02600
O914        O  0.96570798  0.38310206  0.28947014    -0.85300
O915        O  0.54644086  0.50550091  0.28293949    -0.82400
C916        C  0.62482307  0.97382624  0.29031190     0.98200
O917        O  0.61820693  0.01418805  0.28539636    -0.82400
O918        O  0.56311689  0.06887450  0.27227863    -0.85000
C919        C  0.52301213  0.04955067  0.28886971     1.02600
O920        O  0.91561939  0.06660396  0.28989131    -0.77800
O921        O  0.89652977  0.39254217  0.27546766    -0.78000
C922        C  0.91955408  0.38115370  0.29357126     1.02600
Cr923      Cr  0.00899245  0.40284390  0.25643637     1.93700
Cr924      Cr  0.59609544  0.02772419  0.25151390     1.93200
Cr925      Cr  0.93561158  0.45835357  0.25274401     1.39100
O926        O  0.96086503  0.02168287  0.25620865    -1.23100
C927        C  0.69254592  0.03893835  0.15277817    -0.02000
C928        C  0.67916122  0.99661866  0.13422815     0.06600
C929        C  0.59498684  0.49077230  0.15516425    -0.08000
C930        C  0.57713375  0.48510318  0.18143076     0.04000
C931        C  0.65181500  0.97316323  0.18787064    -0.15200
C932        C  0.67970917  0.02706716  0.17939617    -0.08500
C933        C  0.68785511  0.00682940  0.10568982     0.05000
C934        C  0.69800909  0.54516759  0.11177876    -0.09600
C935        C  0.71308664  0.53693929  0.08628784     0.00000
C936        C  0.70235955  0.01387485  0.05024606    -0.00200
C937        C  0.65364282  0.00951831  0.06246399    -0.13200
C938        C  0.64608330  0.00539031  0.08996411     0.00300
C939        C  0.76500107  0.53566567  0.08312531     0.39600
C940        C  0.59425998  0.99699541  0.10182411     0.36200
C941        C  0.71590036  0.09453839  0.14493387     0.36000
C942        C  0.54328345  0.43067902  0.19081116     0.36700
N943        N  0.80672194  0.53508672  0.08063465    -0.44100
N944        N  0.55303579  0.98982662  0.11190922    -0.44500
N945        N  0.05206356  0.32738253  0.18630402    -0.41900
N946        N  0.73410005  0.13944307  0.13918122    -0.43300
H947        H  0.68765120  0.06004471  0.19324277     0.12800
H948        H  0.58219821  0.45505610  0.14257286     0.09300
H949        H  0.72464016  0.54983493  0.12798431     0.10400
H950        H  0.62023541  0.00654526  0.05079558     0.16200
C951        C  0.72353306  0.01279762  0.41126821    -0.02000
C952        C  0.67165708  0.99294218  0.39999216     0.06600
C953        C  0.57749897  0.49365055  0.42768875    -0.08000
C954        C  0.59617947  0.48881751  0.45252309     0.04000
C955        C  0.68247830  0.00585906  0.45556773    -0.15200
C956        C  0.72893209  0.02256487  0.43829978    -0.08500
C957        C  0.66606042  0.98654126  0.37086439     0.05000
C958        C  0.57926942  0.48321366  0.36345356    -0.09600
C959        C  0.56833979  0.48734694  0.33703302     0.00000
C960        C  0.64857869  0.97369409  0.31601293    -0.00200
C961        C  0.68518713  0.02425383  0.32689541    -0.13200
C962        C  0.69417336  0.03108204  0.35392762     0.00300
C963        C  0.54980236  0.43927951  0.32059667     0.39600
C964        C  0.73109130  0.08479715  0.36369912     0.36200
C965        C  0.77114248  0.01952019  0.39557227     0.36000
C966        C  0.55627674  0.45733208  0.47259251     0.36700
N967        N  0.53494113  0.40062718  0.30750104    -0.44100
N968        N  0.76160418  0.12773759  0.37126334    -0.44500
N969        N  0.52859994  0.43924912  0.98635090    -0.41900
N970        N  0.80806240  0.02362609  0.38239778    -0.43300
H971        H  0.77030895  0.04167077  0.44578860     0.12800
H972        H  0.53364756  0.47350049  0.42394767     0.09300
H973        H  0.57553498  0.44538346  0.37041447     0.10400
H974        H  0.70411657  0.05951669  0.31439924     0.16200
C975        C  0.56896052  0.10887852  0.35577849    -0.02000
C976        C  0.51914639  0.10181273  0.36810475     0.06600
C977        C  0.93584926  0.14200422  0.36368495    -0.08000
C978        C  0.92344437  0.12844248  0.33707366     0.04000
C979        C  0.52353810  0.07842339  0.31380139    -0.15200
C980        C  0.57151025  0.09979935  0.32862883    -0.08500
C981        C  0.51770564  0.11812729  0.39619523     0.05000
C982        C  0.55499688  0.17110001  0.40325705    -0.09600
C983        C  0.55568483  0.19112112  0.42869409     0.00000
C984        C  0.51743622  0.15773948  0.44834363    -0.00200
C985        C  0.98786185  0.13742916  0.44546520    -0.13200
C986        C  0.97741966  0.12982844  0.41838641     0.00300
C987        C  0.59608052  0.24696183  0.43264405     0.39600
C988        C  0.93910710  0.07620774  0.40966902     0.36200
C989        C  0.61629174  0.12042097  0.37126295     0.36000
C990        C  0.86624675  0.09786468  0.33010756     0.36700
N991        N  0.62956563  0.29193902  0.43321125    -0.44100
N992        N  0.90715307  0.03279259  0.40364542    -0.44500
N993        N  0.82064626  0.07295246  0.32418269    -0.41900
N994        N  0.65295105  0.12892586  0.38446938    -0.43300
H995        H  0.60943944  0.10307257  0.31974707     0.12800
H996        H  0.90241755  0.12981963  0.37821380     0.09300
H997        H  0.58334983  0.19782352  0.38835741     0.10400
H998        H  0.96570591  0.10373906  0.45867107     0.16200
C999        C  0.56845198  0.10924968  0.14449930    -0.02000
C1000       C  0.51594452  0.09431380  0.13463415     0.06600
C1001       C  0.90799331  0.10516076  0.14738323    -0.08000
C1002       C  0.90457482  0.09649855  0.17465099     0.04000
C1003       C  0.52643960  0.06399062  0.18619180    -0.15200
C1004       C  0.57340605  0.09365976  0.16986636    -0.08500
C1005       C  0.50963630  0.11267317  0.10831669     0.05000
C1006       C  0.52734979  0.09565102  0.08529392    -0.09600
C1007       C  0.52679188  0.11624196  0.06041553     0.00000
C1008       C  0.50668259  0.15422600  0.05815128    -0.00200
C1009       C  0.93043243  0.17496848  0.06664137    -0.13200
C1010       C  0.92346541  0.16198371  0.09324859     0.00300
C1011       C  0.55105115  0.09994969  0.03868722     0.39600
C1012       C  0.87846892  0.16447155  0.10752638     0.36200
C1013       C  0.61750678  0.14243231  0.12900955     0.36000
C1014       C  0.85148036  0.06043714  0.18635199     0.36700
N1015       N  0.59399611  0.15521326  0.53845561    -0.44100
N1016       N  0.84151577  0.16555923  0.11855479    -0.44500
N1017       N  0.80859432  0.03178451  0.19552137    -0.41900
N1018       N  0.65541024  0.16921087  0.11581417    -0.43300
H1019       H  0.61423337  0.10513621  0.17695474     0.12800
H1020       H  0.87138777  0.08276508  0.13585413     0.09300
H1021       H  0.54355966  0.06741832  0.08689674     0.10400
H1022       H  0.90392003  0.19008506  0.05957274     0.16200
C1023       C  0.81104460  0.35028046  0.41465367    -0.02000
C1024       C  0.85093292  0.33869281  0.40232224     0.06600
C1025       C  0.88665122  0.32938688  0.41793914    -0.08000
C1026       C  0.88119605  0.32895356  0.44540215     0.04000
C1027       C  0.83848326  0.33614114  0.45765747    -0.15200
C1028       C  0.80439369  0.34768132  0.44202227    -0.08500
C1029       C  0.86403198  0.34719192  0.37386826     0.05000
C1030       C  0.91486240  0.39045264  0.36729283    -0.09600
C1031       C  0.93032507  0.40409707  0.34132079     0.00000
C1032       C  0.89694675  0.37139035  0.32074961    -0.00200
C1033       C  0.84496090  0.32803440  0.32705870    -0.13200
C1034       C  0.82778048  0.31637751  0.35364114     0.00300
C1035       C  0.97807744  0.45544942  0.33719406     0.39600
C1036       C  0.77348115  0.27301060  0.35967222     0.36200
C1037       C  0.77793263  0.36681548  0.39979516     0.36000
C1038       C  0.91996101  0.32130432  0.46055181     0.36700
N1039       N  0.98294976  0.05537684  0.34155929    -0.44100
N1040       N  0.72947932  0.23889039  0.36448635    -0.44500
N1041       N  0.95204386  0.31635320  0.47258780    -0.41900
N1042       N  0.75173369  0.38044052  0.38787060    -0.43300
H1043       H  0.77137113  0.35327024  0.45099380     0.12800
H1044       H  0.91960913  0.32354810  0.40859443     0.09300
H1045       H  0.94211210  0.41516171  0.38276249     0.10400
H1046       H  0.81843414  0.30316173  0.31144198     0.16200
C1047       C  0.82253869  0.28612164  0.10323689    -0.02000
C1048       C  0.87951970  0.30869557  0.10685648     0.06600
C1049       C  0.91544649  0.32267889  0.08487173    -0.08000
C1050       C  0.89531671  0.31700402  0.05933694     0.04000
C1051       C  0.83846222  0.30043574  0.05568830    -0.15200
C1052       C  0.80251614  0.28127835  0.07796530    -0.08500
C1053       C  0.90147421  0.32800542  0.13335443     0.05000
C1054       C  0.90660740  0.29330054  0.15114306    -0.09600
C1055       C  0.91574955  0.30759545  0.17799959     0.00000
C1056       C  0.91926646  0.35723536  0.18717663    -0.00200
C1057       C  0.91696489  0.39263312  0.16865085    -0.13200
C1058       C  0.90806154  0.37853177  0.14220999     0.00300
C1059       C  0.91997309  0.27020198  0.19548082     0.39600
C1060       C  0.90313269  0.41569112  0.12467832     0.36200
C1061       C  0.78428343  0.27101500  0.12552599     0.36000
C1062       C  0.93397335  0.32636284  0.03769999     0.36700
N1063       N  0.92372134  0.24005855  0.20927632    -0.44100
N1064       N  0.89922115  0.44538374  0.11063821    -0.44500
N1065       N  0.96588727  0.33368624  0.02076078    -0.41900
N1066       N  0.75445504  0.25970236  0.14366965    -0.43300
H1067       H  0.75822419  0.26264409  0.07587133     0.12800
H1068       H  0.95940328  0.33917889  0.08773493     0.09300
H1069       H  0.90190117  0.25451209  0.14426160     0.10400
H1070       H  0.92165144  0.43194474  0.17472370     0.16200
C1071       C  0.79989922  0.19483158  0.97737489     0.80200
N1072       N  0.78372474  0.14019817  0.49406691    -0.78100
C1073       C  0.80938757  0.10850670  0.49535137     0.82700
N1074       N  0.86521160  0.13374776  0.49749265    -0.78000
C1075       C  0.88563934  0.19298308  0.97229918     0.82800
N1076       N  0.85618605  0.22056518  0.97522328    -0.79700
C1077       C  0.69388049  0.30341606  0.49136327     0.80200
N1078       N  0.63780905  0.27552627  0.49143078    -0.78100
C1079       C  0.60676493  0.30131346  0.48840727     0.82700
N1080       N  0.63277511  0.35648530  0.48641748    -0.78000
C1081       C  0.68924730  0.38585264  0.48636070     0.82800
N1082       N  0.71871638  0.35876469  0.48984861    -0.79700
C1083       C  0.80313461  0.30603868  0.53233986     0.86500
C1084       C  0.79913933  0.25035578  0.52848686    -0.53700
C1085       C  0.78376275  0.22743743  0.50420782     0.09400
C1086       C  0.76324584  0.26955533  0.98364727     0.20400
C1087       C  0.83835195  0.33969647  0.50815215    -0.54500
C1088       C  0.82019972  0.31862026  0.98227042     0.09500
C1089       C  0.74531314  0.29800849  0.52696485    -0.54000
C1090       C  0.72579508  0.27778865  0.50272496     0.10100
H1091       H  0.81687784  0.23473555  0.54252028     0.14600
H1092       H  0.74092949  0.25836434  0.96480502     0.00400
H1093       H  0.87433328  0.37924682  0.50965658     0.14900
H1094       H  0.72746630  0.31938360  0.53858001     0.14700
C1095       C  0.48507765  0.19160854  0.52058801     0.86500
C1096       C  0.53309418  0.24887569  0.51878497    -0.53700
C1097       C  0.54583813  0.27012726  0.49417714     0.09400
C1098       C  0.50468318  0.24473402  0.99560045     0.20400
C1099       C  0.95476007  0.18469979  0.53058009    -0.54500
C1100       C  0.95230708  0.21291369  0.50992916     0.09500
C1101       C  0.49803410  0.15829387  0.49855605    -0.54000
C1102       C  0.51791590  0.20090358  0.98494090     0.10100
H1103       H  0.56136876  0.26677634  0.53495356     0.14600
H1104       H  0.50323890  0.27115856  0.98029439     0.00400
H1105       H  0.91784534  0.15743729  0.54173038     0.16800
H1106       H  0.49808226  0.12034413  0.50210942     0.14700
C1107       C  0.69052877  0.01409381  0.53329487     0.86500
C1108       C  0.70438408  0.45192423  0.52039281    -0.53700
C1109       C  0.71467321  0.44448245  0.49482058     0.09400
C1110       C  0.72891887  0.00056979  0.97049561     0.20400
C1111       C  0.75016180  0.05726522  0.52992212    -0.54500
C1112       C  0.77657116  0.05341853  0.50762489     0.09500
C1113       C  0.66424792  0.01312894  0.50608106    -0.54000
C1114       C  0.67697814  0.00689248  0.97467525     0.10100
H1115       H  0.68977788  0.41927574  0.53453995     0.14600
H1116       H  0.73979533  0.99564883  0.94969023     0.00400
H1117       H  0.76593298  0.09464552  0.54161262     0.14900
H1118       H  0.63011584  0.02162088  0.50404074     0.14700
O1119       O  0.91740560  0.42332982  0.73793900    -0.85300
O1120       O  0.55726924  0.41274612  0.72429266    -0.82400
C1121       C  0.54492085  0.02289239  0.71651468     0.98100
O1122       O  0.56619677  0.06185913  0.73299253    -0.82400
O1123       O  0.50286034  0.10730979  0.72039687    -0.85100
C1124       C  0.45856793  0.10814967  0.71587857     1.02700
O1125       O  0.98497493  0.02171037  0.73129150    -0.77800
O1126       O  0.89562754  0.48357862  0.72440416    -0.78000
C1127       C  0.89955125  0.44122923  0.72016500     1.02600
O1128       O  0.94207233  0.45016884  0.79311972    -0.85300
O1129       O  0.58203261  0.43090803  0.78075272    -0.82400
C1130       C  0.55146646  0.03860543  0.79400883     0.98200
O1131       O  0.54657832  0.07983869  0.78888560    -0.82400
O1132       O  0.49359590  0.13594387  0.77442118    -0.85000
C1133       C  0.45686735  0.11905966  0.79256619     1.02600
O1134       O  0.97787382  0.99813228  0.78733817    -0.77800
O1135       O  0.87417253  0.46505360  0.78152016    -0.78000
C1136       C  0.89649381  0.44868818  0.79802788     1.02600
Cr1137     Cr  0.98324229  0.46918861  0.76003349     1.93700
Cr1138     Cr  0.52328660  0.09192859  0.75443489     1.93200
Cr1139     Cr  0.91308231  0.52798970  0.75639639     1.39100
O1140       O  0.03162581  0.96223765  0.75346544    -1.23100
C1141       C  0.62074920  0.08149476  0.65225090    -0.02000
C1142       C  0.60200213  0.03482838  0.63603579     0.06600
C1143       C  0.62717517  0.43549521  0.64759675    -0.08000
C1144       C  0.61099331  0.42280213  0.67391288     0.04000
C1145       C  0.56870686  0.02572865  0.68960080    -0.15200
C1146       C  0.60384613  0.07672770  0.67883295    -0.08500
C1147       C  0.62510850  0.03622012  0.60929946     0.05000
C1148       C  0.72421717  0.50704706  0.60168616    -0.09600
C1149       C  0.73480244  0.50966518  0.57459797     0.00000
C1150       C  0.66717658  0.02327218  0.55958365    -0.00200
C1151       C  0.61754846  0.02635649  0.56158042    -0.13200
C1152       C  0.59592221  0.03174156  0.58634437     0.00300
C1153       C  0.78553046  0.51001661  0.56572458     0.39600
C1154       C  0.54287025  0.03043572  0.58795628     0.36200
C1155       C  0.65703927  0.13447960  0.64191721     0.36000
C1156       C  0.57686211  0.36634888  0.68010709     0.36700
N1157       N  0.82589815  0.50994685  0.55852447    -0.44100
N1158       N  0.50006283  0.02883764  0.58931322    -0.44500
N1159       N  0.02603144  0.38404271  0.69813003    -0.41900
N1160       N  0.68607187  0.17692591  0.63358195    -0.43300
H1161       H  0.61704980  0.11304673  0.69096764     0.12800
H1162       H  0.61249035  0.40356691  0.63266061     0.09300
H1163       H  0.75427998  0.50711501  0.61496535     0.10400
H1164       H  0.59440916  0.02260590  0.54420352     0.16200
C1165       C  0.66876582  0.05143619  0.90616278    -0.02000
C1166       C  0.61188431  0.02449164  0.90128922     0.06600
C1167       C  0.60052333  0.47121834  0.92528593    -0.08000
C1168       C  0.61073369  0.47850036  0.95254301     0.04000
C1169       C  0.65146103  0.01657529  0.95110417    -0.15200
C1170       C  0.68764596  0.04753896  0.93065110    -0.08500
C1171       C  0.59223024  0.02699598  0.87456335     0.05000
C1172       C  0.61230457  0.43534354  0.86555003    -0.09600
C1173       C  0.60375813  0.42918925  0.83822089     0.00000
C1174       C  0.57019605  0.03403243  0.82079835    -0.00200
C1175       C  0.59154681  0.08015950  0.83758727    -0.13200
C1176       C  0.60106544  0.07664678  0.86422894     0.00300
C1177       C  0.57491054  0.37487026  0.82747458     0.39600
C1178       C  0.61923309  0.12426800  0.88099394     0.36200
C1179       C  0.70916035  0.08202659  0.88594730     0.36000
C1180       C  0.56490059  0.45591901  0.97111579     0.36700
N1181       N  0.55130143  0.33112970  0.81911821    -0.44100
N1182       N  0.63378491  0.16161525  0.89497581    -0.44500
N1183       N  0.52464195  0.43281039  0.48898952    -0.41900
N1184       N  0.74135802  0.10677765  0.86978595    -0.43300
H1185       H  0.73171682  0.06795120  0.93331343     0.12800
H1186       H  0.55849921  0.44858124  0.91860987     0.09300
H1187       H  0.60070215  0.39994365  0.87748262     0.10400
H1188       H  0.59861824  0.11890239  0.83023047     0.16200
C1189       C  0.53362744  0.19473792  0.85231260    -0.02000
C1190       C  0.49086585  0.17486553  0.87191698     0.06600
C1191       C  0.96486689  0.08130556  0.85428622    -0.08000
C1192       C  0.96683646  0.06796652  0.82757898     0.04000
C1193       C  0.46624723  0.14955392  0.81800271    -0.15200
C1194       C  0.52095533  0.18195825  0.82571316    -0.08500
C1195       C  0.50224491  0.17965299  0.90078281     0.05000
C1196       C  0.53785677  0.23037540  0.91150497    -0.09600
C1197       C  0.54874722  0.23742143  0.93839501     0.00000
C1198       C  0.52163384  0.19312747  0.95584949    -0.00200
C1199       C  0.97426489  0.10393993  0.94302457    -0.13200
C1200       C  0.97339974  0.08305528  0.91732692     0.00300
C1201       C  0.58824653  0.29129991  0.94659717     0.39600
C1202       C  0.93427911  0.02741007  0.91160904     0.36200
C1203       C  0.59110992  0.22628738  0.85863853     0.36000
C1204       C  0.91752459  0.04936217  0.81246891     0.36700
N1205       N  0.62059091  0.33566220  0.95102429    -0.44100
N1206       N  0.90263686  0.98289495  0.90697928    -0.44500
N1207       N  0.87823230  0.03477112  0.80021370    -0.41900
N1208       N  0.63727342  0.25268905  0.86331818    -0.43300
H1209       H  0.55448252  0.19335703  0.81126765     0.12800
H1210       H  0.92683581  0.07790662  0.86306052     0.09300
H1211       H  0.55639453  0.26540635  0.89887224     0.10400
H1212       H  0.94459031  0.07840000  0.95778806     0.16200
C1213       C  0.50550758  0.17734481  0.65025023    -0.02000
C1214       C  0.45874945  0.14754292  0.63468254     0.06600
C1215       C  0.96150023  0.05924784  0.65100875    -0.08000
C1216       C  0.96467063  0.04318174  0.67659491     0.04000
C1217       C  0.45429493  0.12839918  0.68966678    -0.15200
C1218       C  0.50329018  0.16670142  0.67716994    -0.08500
C1219       C  0.46183236  0.15318313  0.60521164     0.05000
C1220       C  0.50404331  0.14921986  0.59019073    -0.09600
C1221       C  0.51083072  0.15862598  0.56281604     0.00000
C1222       C  0.47473461  0.17221382  0.54952892    -0.00200
C1223       C  0.98728724  0.16974258  0.58204483    -0.13200
C1224       C  0.98535496  0.14833298  0.60675005     0.00300
C1225       C  0.55692400  0.15671708  0.54924355     0.39600
C1226       C  0.96575666  0.16789829  0.62920731     0.36200
C1227       C  0.55609860  0.21977928  0.63917550     0.36000
C1228       C  0.91380631  0.00670508  0.68996904     0.36700
N1229       N  0.57126862  0.08602100  0.02187205    -0.44100
N1230       N  0.95010313  0.18372528  0.64714941    -0.44500
N1231       N  0.87294393  0.97705349  0.70050423    -0.41900
N1232       N  0.59634833  0.25406756  0.63023085    -0.43300
H1233       H  0.54064070  0.18753490  0.68839063     0.12800
H1234       H  0.92148055  0.04558100  0.64240191     0.09300
H1235       H  0.53263465  0.13967993  0.60001401     0.10400
H1236       H  0.97385026  0.20027808  0.58087414     0.16200
C1237       C  0.80482372  0.37521837  0.91952187    -0.02000
C1238       C  0.84853334  0.37604022  0.90405538     0.06600
C1239       C  0.88921287  0.36770273  0.91585395    -0.08000
C1240       C  0.88423808  0.35415395  0.94249539     0.04000
C1241       C  0.83822056  0.34945114  0.95757210    -0.15200
C1242       C  0.80012754  0.36213756  0.94603115    -0.08500
C1243       C  0.85623577  0.39279275  0.87641055     0.05000
C1244       C  0.89478101  0.44602021  0.87133036    -0.09600
C1245       C  0.90324079  0.46600477  0.84602539     0.00000
C1246       C  0.87384613  0.43213065  0.82478944    -0.00200
C1247       C  0.83478798  0.37815880  0.82979598    -0.13200
C1248       C  0.82548798  0.35832400  0.85562847     0.00300
C1249       C  0.94523793  0.52097266  0.84256067     0.39600
C1250       C  0.78733352  0.30202977  0.86020033     0.36200
C1251       C  0.76425561  0.38739453  0.90854465     0.36000
C1252       C  0.92502850  0.34236354  0.95326710     0.36700
N1253       N  0.05783340  0.99077835  0.83630609    -0.44100
N1254       N  0.75719841  0.25678446  0.86392550    -0.44500
N1255       N  0.95829815  0.33312039  0.96146950    -0.41900
N1256       N  0.73193558  0.39728671  0.89969927    -0.43300
H1257       H  0.76469561  0.35891752  0.95735026     0.12800
H1258       H  0.92429269  0.37084786  0.90407442     0.09300
H1259       H  0.91911738  0.47192041  0.88731252     0.10400
H1260       H  0.81401637  0.35098707  0.81350591     0.16200
C1261       C  0.79863096  0.33350847  0.60668384    -0.02000
C1262       C  0.85443226  0.35818082  0.61320719     0.06600
C1263       C  0.89440943  0.36548248  0.59358989    -0.08000
C1264       C  0.87925539  0.34945011  0.56735854     0.04000
C1265       C  0.82321477  0.32793712  0.56017277    -0.15200
C1266       C  0.78348672  0.31784486  0.58071971    -0.08500
C1267       C  0.87092921  0.38030660  0.64011094     0.05000
C1268       C  0.87522188  0.34808325  0.65957784    -0.09600
C1269       C  0.88333282  0.36581157  0.68604701     0.00000
C1270       C  0.88694225  0.41659329  0.69322387    -0.00200
C1271       C  0.88286406  0.44844264  0.67331252    -0.13200
C1272       C  0.87488803  0.43080985  0.64716433     0.00300
C1273       C  0.88620585  0.33049797  0.70529194     0.39600
C1274       C  0.86910816  0.46463271  0.62796207     0.36200
C1275       C  0.75604587  0.32412466  0.62647297     0.36000
C1276       C  0.92184980  0.35340006  0.54873445     0.36700
N1277       N  0.88840279  0.30196258  0.72064965    -0.44100
N1278       N  0.86401367  0.49155666  0.61265989    -0.44500
N1279       N  0.95627448  0.35633939  0.53402849    -0.41900
N1280       N  0.72229732  0.31697351  0.64244837    -0.43300
H1281       H  0.73977375  0.29603284  0.57706789     0.12800
H1282       H  0.93746774  0.38370324  0.59880482     0.09300
H1283       H  0.87083504  0.30852194  0.65416994     0.10400
H1284       H  0.88629963  0.48791996  0.67799798     0.16200
C1285       C  0.80246817  0.68930310  0.48313744     0.80200
N1286       N  0.77873664  0.64380387  0.99208670    -0.78100
C1287       C  0.80445571  0.61225130  0.99324145     0.82700
N1288       N  0.86016436  0.63741878  0.99519282    -0.78000
C1289       C  0.88818091  0.68741101  0.47960759     0.82800
N1290       N  0.85879452  0.71506876  0.48107613    -0.79700
C1291       C  0.69218198  0.80784472  0.98471666     0.80200
N1292       N  0.63610034  0.78140905  0.98647782    -0.78100
C1293       C  0.60559202  0.80805211  0.98456203     0.82700
N1294       N  0.63269669  0.86302541  0.98168478    -0.78000
C1295       C  0.68925541  0.89097422  0.97935755     0.82800
N1296       N  0.71812221  0.86288191  0.98177564    -0.79700
C1297       C  0.79500239  0.80805317  0.03013573     0.86500
C1298       C  0.79060689  0.75214763  0.02612139    -0.53700
C1299       C  0.77877350  0.73108696  0.00128100     0.09400
C1300       C  0.76644505  0.76398997  0.48729511     0.20400
C1301       C  0.83470695  0.84284847  0.00720727    -0.54500
C1302       C  0.82394260  0.81165046  0.48388868     0.09500
C1303       C  0.73887995  0.80159656  0.02235523    -0.54000
C1304       C  0.72330009  0.78291115  0.99742123     0.10100
H1305       H  0.80575335  0.73508998  0.04071123     0.14600
H1306       H  0.74219711  0.75054287  0.46903037     0.00400
H1307       H  0.87115791  0.88157646  0.01004630     0.14900
H1308       H  0.71928633  0.82210860  0.03332652     0.14700
C1309       C  0.49776820  0.70083101  0.02302857     0.86500
C1310       C  0.54130790  0.76000598  0.01888739    -0.53700
C1311       C  0.54598028  0.77888879  0.99404135     0.09400
C1312       C  0.50780513  0.74116971  0.49560617     0.20400
C1313       C  0.94752797  0.68607775  0.02893696    -0.54500
C1314       C  0.94650575  0.71540628  0.00835783     0.09500
C1315       C  0.51067688  0.67006674  0.99961764    -0.54000
C1316       C  0.51412584  0.69301716  0.48510268     0.10100
H1317       H  0.57492697  0.77994447  0.03257417     0.14600
H1318       H  0.51019443  0.76983564  0.48044415     0.00400
H1319       H  0.91035948  0.66047670  0.04038981     0.16800
H1320       H  0.52183226  0.63831558  0.00216790     0.14700
C1321       C  0.69455959  0.51888616  0.03702164     0.86500
C1322       C  0.70953421  0.95782071  0.01320144    -0.53700
C1323       C  0.71725825  0.94990602  0.98737137     0.09400
C1324       C  0.72913144  0.49582410  0.47784254     0.20400
C1325       C  0.75200060  0.56338258  0.03009454    -0.54500
C1326       C  0.77293743  0.55831129  0.00630220     0.09500
C1327       C  0.66007494  0.51523788  0.01225459    -0.54000
C1328       C  0.67776591  0.50362852  0.48097409     0.10100
H1329       H  0.69672746  0.92548599  0.02743112     0.14600
H1330       H  0.74108384  0.49102282  0.45720982     0.00400
H1331       H  0.76995734  0.60156253  0.04116752     0.14900
H1332       H  0.62445460  0.52202848  0.01283102     0.14700
O1333       O  0.89243851  0.91437483  0.23912568    -0.85300
O1334       O  0.58095066  0.91994623  0.21854117    -0.82400
C1335       C  0.56349294  0.52835988  0.22341208     0.98100
O1336       O  0.58194506  0.56650712  0.24040555    -0.82400
O1337       O  0.51971396  0.60989553  0.22366437    -0.85100
C1338       C  0.47604182  0.60974212  0.21691065     1.02700
O1339       O  0.96151708  0.52325061  0.22918479    -0.77800
O1340       O  0.87273147  0.97604474  0.22577130    -0.78000
C1341       C  0.87490386  0.93276490  0.22141950     1.02600
O1342       O  0.93234577  0.94559367  0.29229420    -0.85300
O1343       O  0.60850725  0.93373609  0.27438966    -0.82400
C1344       C  0.55820762  0.54270930  0.30028828     0.98200
O1345       O  0.55361932  0.58404873  0.29478444    -0.82400
O1346       O  0.50330935  0.64099538  0.27610106    -0.85000
C1347       C  0.46414899  0.62515190  0.29302255     1.02600
O1348       O  0.94581927  0.49976543  0.28532293    -0.77800
O1349       O  0.86138096  0.95782881  0.28344810    -0.78000
C1350       C  0.88721842  0.94361209  0.29906062     1.02600
Cr1351     Cr  0.96450889  0.95996760  0.25707946     1.93700
Cr1352     Cr  0.53554836  0.59625923  0.25899930     1.93200
Cr1353     Cr  0.89588110  0.02073274  0.25793385     1.39100
O1354       O  0.00183175  0.46231409  0.25457145    -1.23100
C1355       C  0.64893978  0.58798817  0.16144509    -0.02000
C1356       C  0.62945331  0.54181215  0.14483036     0.06600
C1357       C  0.65586469  0.94305232  0.14278515    -0.08000
C1358       C  0.64182062  0.93087984  0.16939205     0.04000
C1359       C  0.59251369  0.53170555  0.19782442    -0.15200
C1360       C  0.62975392  0.58279016  0.18772438    -0.08500
C1361       C  0.64752700  0.54406492  0.11701556     0.05000
C1362       C  0.73704795  0.01334613  0.09398207    -0.09600
C1363       C  0.74454089  0.01607151  0.06669569     0.00000
C1364       C  0.67775993  0.52913909  0.06481628    -0.00200
C1365       C  0.62751029  0.52980541  0.07023210    -0.13200
C1366       C  0.61195408  0.53636232  0.09618614     0.00300
C1367       C  0.79528252  0.01828976  0.05632393     0.39600
C1368       C  0.55840360  0.53282179  0.10132663     0.36200
C1369       C  0.68794498  0.64081027  0.15183403     0.36000
C1370       C  0.61596701  0.87474677  0.17694204     0.36700
N1371       N  0.83594864  0.02005440  0.04816988    -0.44100
N1372       N  0.51538172  0.52952191  0.10577391    -0.44500
N1373       N  0.97924236  0.87190189  0.18628456    -0.41900
N1374       N  0.71952648  0.68305883  0.14413611    -0.43300
H1375       H  0.64229274  0.61884433  0.19999516     0.12800
H1376       H  0.64676452  0.91055396  0.12847396     0.09300
H1377       H  0.76889186  0.01398387  0.10622226     0.10400
H1378       H  0.59920440  0.52321492  0.05465657     0.16200
C1379       C  0.67196855  0.55054438  0.41269572    -0.02000
C1380       C  0.61520645  0.52403876  0.40755346     0.06600
C1381       C  0.62508832  0.97981332  0.41663641    -0.08000
C1382       C  0.62990659  0.98517107  0.44427282     0.04000
C1383       C  0.65340048  0.51356649  0.45714913    -0.15200
C1384       C  0.69028494  0.54511074  0.43708281    -0.08500
C1385       C  0.59610044  0.52754697  0.38091801     0.05000
C1386       C  0.63316343  0.93500175  0.35981785    -0.09600
C1387       C  0.62488670  0.92801142  0.33254914     0.00000
C1388       C  0.57503518  0.53724708  0.32738215    -0.00200
C1389       C  0.59248016  0.58170942  0.34514244    -0.13200
C1390       C  0.60168088  0.57681023  0.37168714     0.00300
C1391       C  0.58833532  0.87441592  0.32261518     0.39600
C1392       C  0.61601627  0.62244471  0.38948330     0.36200
C1393       C  0.71268939  0.58221203  0.39284584     0.36000
C1394       C  0.58033245  0.96821462  0.46027805     0.36700
N1395       N  0.55914000  0.83117408  0.31491641    -0.44100
N1396       N  0.62721878  0.65820533  0.40423307    -0.44500
N1397       N  0.52397984  0.93781857  0.98414259    -0.41900
N1398       N  0.74526788  0.60770652  0.37698032    -0.43300
H1399       H  0.73427999  0.56496565  0.44006944     0.12800
H1400       H  0.58481455  0.96444334  0.40803530     0.09300
H1401       H  0.61296635  0.90033274  0.37261852     0.10400
H1402       H  0.59723077  0.62015210  0.33854698     0.16200
C1403       C  0.53242393  0.69714361  0.35387852    -0.02000
C1404       C  0.48698519  0.67761259  0.37215764     0.06600
C1405       C  0.94765255  0.57742392  0.35712147    -0.08000
C1406       C  0.93993940  0.55886839  0.33097582     0.04000
C1407       C  0.46985201  0.65693803  0.31761078    -0.15200
C1408       C  0.52332979  0.68780905  0.32692581    -0.08500
C1409       C  0.49463832  0.67857027  0.40128320     0.05000
C1410       C  0.53506499  0.72604059  0.41276800    -0.09600
C1411       C  0.54771899  0.72871090  0.43920001     0.00000
C1412       C  0.51575341  0.68462280  0.45602981    -0.00200
C1413       C  0.99060552  0.61307214  0.44191879    -0.13200
C1414       C  0.98443911  0.59299952  0.41585223     0.00300
C1415       C  0.59456984  0.77807117  0.44760497     0.39600
C1416       C  0.95260425  0.53532132  0.41166824     0.36200
C1417       C  0.58914410  0.72330181  0.36179404     0.36000
C1418       C  0.88487403  0.51945703  0.32360365     0.36700
N1419       N  0.63317749  0.81889007  0.45196071    -0.44100
N1420       N  0.92604648  0.48906529  0.40866518    -0.44500
N1421       N  0.84080590  0.48740172  0.31791925    -0.41900
N1422       N  0.63483451  0.74550084  0.36780776    -0.43300
H1423       H  0.55859373  0.69879483  0.31356839     0.12800
H1424       H  0.91221044  0.56382561  0.37054246     0.09300
H1425       H  0.55717006  0.76203673  0.40098352     0.10400
H1426       H  0.96991276  0.58528244  0.45792048     0.16200
C1427       C  0.52285108  0.65168455  0.14641315    -0.02000
C1428       C  0.47448450  0.64440757  0.13456261     0.06600
C1429       C  0.94758707  0.56371193  0.14868989    -0.08000
C1430       C  0.94783047  0.54797570  0.17459383     0.04000
C1431       C  0.47399747  0.62541888  0.18918938    -0.15200
C1432       C  0.52246942  0.64272220  0.17330925    -0.08500
C1433       C  0.47576898  0.65680712  0.10625697     0.05000
C1434       C  0.46646276  0.61672607  0.08695200    -0.09600
C1435       C  0.47428022  0.62908857  0.05995927     0.00000
C1436       C  0.49379746  0.68337106  0.05184738    -0.00200
C1437       C  0.98710188  0.67370678  0.07972372    -0.13200
C1438       C  0.98615837  0.65370606  0.10456614     0.00300
C1439       C  0.45922324  0.58449766  0.04151128     0.39600
C1440       C  0.97759752  0.68116447  0.12741531     0.36200
C1441       C  0.57339548  0.66795723  0.13110315     0.36000
C1442       C  0.89549258  0.52029967  0.18861616     0.36700
N1443       N  0.52863496  0.55096008  0.52256832    -0.44100
N1444       N  0.97065209  0.70310870  0.14569428    -0.44500
N1445       N  0.85331973  0.49773117  0.19964883    -0.41900
N1446       N  0.61342070  0.68082452  0.11849778    -0.43300
H1447       H  0.56049756  0.64826513  0.18170256     0.12800
H1448       H  0.90904088  0.55676073  0.14029692     0.09300
H1449       H  0.45304950  0.57556942  0.09302085     0.10400
H1450       H  0.98131839  0.70930358  0.07862197     0.16200
C1451       C  0.80291288  0.86303474  0.42042502    -0.02000
C1452       C  0.84745723  0.86640678  0.40467085     0.06600
C1453       C  0.88915202  0.85911199  0.41616203    -0.08000
C1454       C  0.88498620  0.84508881  0.44272993     0.04000
C1455       C  0.83924473  0.83965467  0.45826678    -0.15200
C1456       C  0.79954506  0.85032682  0.44693289    -0.08500
C1457       C  0.85447429  0.88419140  0.37709502     0.05000
C1458       C  0.89738019  0.93537543  0.37157510    -0.09600
C1459       C  0.90355935  0.95750846  0.34685233     0.00000
C1460       C  0.86841559  0.92700522  0.32629891    -0.00200
C1461       C  0.82571730  0.87473506  0.33153076    -0.13200
C1462       C  0.81845088  0.85316127  0.35690162     0.00300
C1463       C  0.94748823  0.01163942  0.34323207     0.39600
C1464       C  0.77773709  0.79762851  0.36123175     0.36200
C1465       C  0.76004536  0.87228596  0.40986028     0.36000
C1466       C  0.92626417  0.83347948  0.45296346     0.36700
N1467       N  0.01516487  0.49839732  0.33638472    -0.44100
N1468       N  0.74605236  0.75275338  0.36475101    -0.44500
N1469       N  0.95977282  0.82428005  0.46085809    -0.41900
N1470       N  0.72550962  0.87932191  0.40138559    -0.43300
H1471       H  0.76408437  0.84628954  0.45851787     0.12800
H1472       H  0.92439357  0.86332750  0.40417363     0.09300
H1473       H  0.92638789  0.95813526  0.38679633     0.10400
H1474       H  0.80044150  0.84978417  0.31558137     0.16200
C1475       C  0.77756436  0.82836735  0.10478100    -0.02000
C1476       C  0.83196828  0.85235453  0.11352230     0.06600
C1477       C  0.87495832  0.86205215  0.09525676    -0.08000
C1478       C  0.86449500  0.84869999  0.06841433     0.04000
C1479       C  0.81005216  0.82754191  0.05894312    -0.15200
C1480       C  0.76699132  0.81547255  0.07804597    -0.08500
C1481       C  0.84493692  0.87196067  0.14119850     0.05000
C1482       C  0.83523756  0.83545099  0.16162487    -0.09600
C1483       C  0.84426735  0.85346019  0.18809926     0.00000
C1484       C  0.86288470  0.90879809  0.19432006    -0.00200
C1485       C  0.87360700  0.94490092  0.17355218    -0.13200
C1486       C  0.86419788  0.92703906  0.14740705     0.00300
C1487       C  0.83300964  0.81438815  0.20836314     0.39600
C1488       C  0.87230736  0.96562131  0.12729023     0.36200
C1489       C  0.73189269  0.81739051  0.12293680     0.36000
C1490       C  0.91056308  0.85533944  0.05162435     0.36700
N1491       N  0.82397250  0.78294129  0.22457972    -0.44100
N1492       N  0.87787296  0.99600882  0.11106855    -0.44500
N1493       N  0.94839486  0.86092977  0.03874051    -0.41900
N1494       N  0.69552561  0.80883904  0.13756747    -0.43300
H1495       H  0.72419825  0.79440397  0.07255452     0.12800
H1496       H  0.91696615  0.87998779  0.10207959     0.09300
H1497       H  0.82003737  0.79284954  0.15688489     0.10400
H1498       H  0.89012204  0.98778192  0.17768645     0.16200
C1499       C  0.80785502  0.69901246  0.99261051     0.80200
N1500       N  0.77546595  0.63414065  0.48335046    -0.78100
C1501       C  0.80322187  0.60446998  0.48103261     0.82700
N1502       N  0.85967862  0.63183550  0.48021769    -0.78000
C1503       C  0.89071781  0.69258757  0.99617787     0.82800
N1504       N  0.86389034  0.72282218  0.99551942    -0.79700
C1505       C  0.70400159  0.81108242  0.50434544     0.80200
N1506       N  0.64847188  0.78019212  0.50674812    -0.78100
C1507       C  0.61424959  0.80298980  0.50853183     0.82700
N1508       N  0.63667848  0.85794015  0.50834119    -0.78000
C1509       C  0.69269950  0.89032229  0.50583943     0.82800
N1510       N  0.72605257  0.86643453  0.50464882    -0.79700
C1511       C  0.81994088  0.79216986  0.53113235     0.86500
C1512       C  0.79998535  0.73333432  0.52290865    -0.53700
C1513       C  0.77769461  0.71921892  0.49868263     0.09400
C1514       C  0.76481864  0.76677514  0.98303504     0.20400
C1515       C  0.85336703  0.82691490  0.50679928    -0.54500
C1516       C  0.81800026  0.82007282  0.98251000     0.09500
C1517       C  0.76812306  0.79932336  0.53182525    -0.54000
C1518       C  0.73998313  0.78573157  0.50905688     0.10100
H1519       H  0.81471153  0.70887304  0.53285264     0.14600
H1520       H  0.75059650  0.74751952  0.96340736     0.00400
H1521       H  0.89358108  0.86233375  0.50787269     0.14900
H1522       H  0.75864874  0.82052705  0.54782153     0.14700
C1523       C  0.50043227  0.67630061  0.53318736     0.86500
C1524       C  0.54756254  0.73372367  0.53607842    -0.53700
C1525       C  0.55483381  0.76752269  0.51599061     0.09400
C1526       C  0.49795678  0.73732695  0.97647361     0.20400
C1527       C  0.94728738  0.69921130  0.51545905    -0.54500
C1528       C  0.94495678  0.71511703  0.49090063     0.09500
C1529       C  0.50940534  0.65754899  0.50464588    -0.54000
C1530       C  0.51062645  0.68999148  0.97493331     0.10100
H1531       H  0.57930732  0.74337168  0.55051726     0.14600
H1532       H  0.49493262  0.75380996  0.95752779     0.00400
H1533       H  0.91061925  0.67911376  0.52813941     0.16800
H1534       H  0.50926057  0.61985956  0.49962009     0.14700
C1535       C  0.70456348  0.50502742  0.52707004     0.86500
C1536       C  0.69165847  0.96071355  0.53374549    -0.53700
C1537       C  0.71577043  0.94974841  0.51246356     0.09400
C1538       C  0.73506723  0.50259481  0.99266094     0.20400
C1539       C  0.76109003  0.54921854  0.51808924    -0.54500
C1540       C  0.77415432  0.54805442  0.49208919     0.09500
C1541       C  0.66412914  0.50833777  0.50704226    -0.54000
C1542       C  0.68246247  0.50682089  0.98877375     0.10100
H1543       H  0.66796045  0.93029994  0.54843140     0.14600
H1544       H  0.75453131  0.49495822  0.97462557     0.00400
H1545       H  0.78384022  0.58500656  0.53043054     0.14900
H1546       H  0.63105890  0.51760177  0.51250702     0.14700
O1547       O  0.97163098  0.85641181  0.73239291    -0.85300
O1548       O  0.50071058  0.98190097  0.72239024    -0.82400
C1549       C  0.59976689  0.45653963  0.71951657     0.98100
O1550       O  0.61519797  0.49496591  0.73622937    -0.82400
O1551       O  0.54673626  0.53210689  0.71970246    -0.85100
C1552       C  0.50226318  0.53186712  0.71456300     1.02700
O1553       O  0.94015320  0.59034387  0.73084430    -0.77800
O1554       O  0.94720060  0.91644754  0.72140532    -0.78000
C1555       C  0.95240970  0.87528813  0.71566541     1.02600
O1556       O  0.00265338  0.88287905  0.78821102    -0.85300
O1557       O  0.53775722  0.00093595  0.77678839    -0.82400
C1558       C  0.59619863  0.47209206  0.79591719     0.98200
O1559       O  0.58780028  0.51059468  0.78947509    -0.82400
O1560       O  0.52829712  0.55884192  0.77378263    -0.85000
C1561       C  0.49014785  0.53851755  0.79128138     1.02600
O1562       O  0.92581705  0.57365545  0.78804539    -0.77800
O1563       O  0.93054977  0.89054906  0.77719068    -0.78000
C1564       C  0.95627496  0.87935004  0.79409156     1.02600
Cr1565     Cr  0.03979479  0.90282750  0.75326270     1.93700
Cr1566     Cr  0.56549910  0.51990269  0.75483437     1.93200
Cr1567     Cr  0.96461759  0.95684167  0.75434090     1.39100
O1568       O  0.97821977  0.52984338  0.75811608    -1.23100
C1569       C  0.68304311  0.53018030  0.65952210    -0.02000
C1570       C  0.66128133  0.48906038  0.64013192     0.06600
C1571       C  0.56759939  0.98402649  0.64664921    -0.08000
C1572       C  0.55098223  0.97884890  0.67311644     0.04000
C1573       C  0.62789428  0.46483349  0.69326832    -0.15200
C1574       C  0.66590475  0.51796067  0.68585538    -0.08500
C1575       C  0.67373599  0.50034337  0.61182516     0.05000
C1576       C  0.67478821  0.03450675  0.60742844    -0.09600
C1577       C  0.69545625  0.02700261  0.58323144     0.00000
C1578       C  0.69512510  0.50833074  0.55681203    -0.00200
C1579       C  0.64499006  0.50352896  0.56742519    -0.13200
C1580       C  0.63377218  0.49840060  0.59465102     0.00300
C1581       C  0.74527116  0.02161093  0.58367358     0.39600
C1582       C  0.57981812  0.48777786  0.60459211     0.36200
C1583       C  0.72148948  0.58530952  0.65272598     0.36000
C1584       C  0.51634342  0.92458889  0.68258612     0.36700
N1585       N  0.78506464  0.01729629  0.58403806    -0.44100
N1586       N  0.53656050  0.47829504  0.61295580    -0.44500
N1587       N  0.08857082  0.83173046  0.68241355    -0.41900
N1588       N  0.75267416  0.62942536  0.64733931    -0.43300
H1589       H  0.68026176  0.55063622  0.70036668     0.12800
H1590       H  0.55483936  0.94803747  0.63425936     0.09300
H1591       H  0.69630320  0.03650643  0.62526555     0.10400
H1592       H  0.61293632  0.50031283  0.55470477     0.16200
C1593       C  0.69860883  0.52399950  0.91540191    -0.02000
C1594       C  0.64440020  0.49303008  0.90656926     0.06600
C1595       C  0.57473855  0.99506279  0.92185295    -0.08000
C1596       C  0.59414288  0.99146252  0.94676756     0.04000
C1597       C  0.66547608  0.50775820  0.96122073    -0.15200
C1598       C  0.70824908  0.53245071  0.94222513    -0.08500
C1599       C  0.63392568  0.48663400  0.87779074     0.05000
C1600       C  0.57163193  0.98097436  0.85802579    -0.09600
C1601       C  0.56018625  0.98384245  0.83150096     0.00000
C1602       C  0.61907806  0.47544485  0.82252575    -0.00200
C1603       C  0.64439652  0.52698090  0.83490104    -0.13200
C1604       C  0.64895936  0.53245194  0.86223325     0.00300
C1605       C  0.53719849  0.93422464  0.81610688     0.39600
C1606       C  0.66478561  0.58483921  0.87438617     0.36200
C1607       C  0.74560272  0.54616153  0.89728090     0.36000
C1608       C  0.55493945  0.96119065  0.96730371     0.36700
N1609       N  0.51873527  0.89427887  0.80387787    -0.44100
N1610       N  0.67659690  0.62584533  0.88498095    -0.44500
N1611       N  0.54048919  0.95518436  0.47304751    -0.41900
N1612       N  0.78300305  0.56396026  0.88267271    -0.43300
H1613       H  0.75045016  0.55691913  0.94824832     0.12800
H1614       H  0.53077133  0.97473869  0.91839995     0.09300
H1615       H  0.56525220  0.94275280  0.86578619     0.10400
H1616       H  0.65535531  0.56298088  0.82353925     0.16200
C1617       C  0.55423735  0.62980350  0.84983528    -0.02000
C1618       C  0.51213559  0.60627973  0.86953758     0.06600
C1619       C  0.93085003  0.65197650  0.85882271    -0.08000
C1620       C  0.92331173  0.63946446  0.83185387     0.04000
C1621       C  0.49328126  0.56721347  0.81677405    -0.15200
C1622       C  0.54442072  0.61027747  0.82385792    -0.08500
C1623       C  0.51945269  0.62697947  0.89727823     0.05000
C1624       C  0.53932663  0.68238484  0.90139383    -0.09600
C1625       C  0.54351965  0.70453617  0.92657520     0.00000
C1626       C  0.52181119  0.67012472  0.94882698    -0.00200
C1627       C  0.97127208  0.63762942  0.94244166    -0.13200
C1628       C  0.96089454  0.63297274  0.91530459     0.00300
C1629       C  0.57106319  0.76297282  0.92775010     0.39600
C1630       C  0.91786305  0.58211704  0.90563388     0.36200
C1631       C  0.60835770  0.67348082  0.85558062     0.36000
C1632       C  0.86765404  0.61080571  0.82243632     0.36700
N1633       N  0.59287473  0.80980188  0.92701912    -0.44100
N1634       N  0.88207323  0.54164174  0.89834465    -0.44500
N1635       N  0.82299477  0.58781179  0.81495516    -0.41900
N1636       N  0.65145255  0.70922604  0.85991053    -0.43300
H1637       H  0.57805949  0.62696789  0.80939006     0.12800
H1638       H  0.89507945  0.64065977  0.87181110     0.09300
H1639       H  0.55095011  0.70898238  0.88462195     0.10400
H1640       H  0.94610841  0.60395786  0.95521376     0.16200
C1641       C  0.54257255  0.58852002  0.64559794    -0.02000
C1642       C  0.49227209  0.58115612  0.63574986     0.06600
C1643       C  0.93273067  0.62592539  0.64822841    -0.08000
C1644       C  0.93149664  0.61566984  0.67524356     0.04000
C1645       C  0.49719505  0.55061318  0.68803105    -0.15200
C1646       C  0.54457329  0.57310201  0.67129657    -0.08500
C1647       C  0.48974507  0.60098761  0.60920492     0.05000
C1648       C  0.50100028  0.57794082  0.58636595    -0.09600
C1649       C  0.50375837  0.59906436  0.56118862     0.00000
C1650       C  0.49513181  0.64487757  0.55855659    -0.00200
C1651       C  0.00494560  0.72209591  0.57043559    -0.13200
C1652       C  0.99944468  0.71023788  0.59711777     0.00300
C1653       C  0.51750393  0.57322287  0.53938091     0.39600
C1654       C  0.01148972  0.75361511  0.61607224     0.36200
C1655       C  0.59321879  0.61338587  0.62999879     0.36000
C1656       C  0.87948632  0.59649956  0.68952401     0.36700
N1657       N  0.44663087  0.54800510  0.02708496    -0.44100
N1658       N  0.02168921  0.78886858  0.63100793    -0.44500
N1659       N  0.83767900  0.58149597  0.70086287    -0.41900
N1660       N  0.63386367  0.63327315  0.61756398    -0.43300
H1661       H  0.58385384  0.57895574  0.67824729     0.12800
H1662       H  0.89524493  0.61930962  0.63881432     0.09300
H1663       H  0.50862515  0.54369753  0.58827734     0.10400
H1664       H  0.01482919  0.76297513  0.56525511     0.16200
C1665       C  0.82764339  0.84640453  0.91019039    -0.02000
C1666       C  0.87616188  0.84385216  0.90261549     0.06600
C1667       C  0.91046183  0.84317380  0.92231290    -0.08000
C1668       C  0.89539263  0.84166388  0.94907306     0.04000
C1669       C  0.84524218  0.84087385  0.95656197    -0.15200
C1670       C  0.81258671  0.84462064  0.93689047    -0.08500
C1671       C  0.89553788  0.84876196  0.87460950     0.05000
C1672       C  0.94560584  0.89363136  0.86821109    -0.09600
C1673       C  0.96563658  0.90298954  0.84232500     0.00000
C1674       C  0.93527010  0.86754353  0.82170313    -0.00200
C1675       C  0.88516119  0.82169263  0.82800041    -0.13200
C1676       C  0.86561045  0.81156959  0.85436605     0.00300
C1677       C  0.01671364  0.95121329  0.83795848     0.39600
C1678       C  0.81612853  0.76209582  0.86027007     0.36200
C1679       C  0.79288770  0.85139199  0.89101854     0.36000
C1680       C  0.93077140  0.83821115  0.96825156     0.36700
N1681       N  0.97969420  0.56521887  0.84122435    -0.44100
N1682       N  0.77660053  0.72217409  0.86494712    -0.44500
N1683       N  0.95993286  0.83597747  0.98340284    -0.41900
N1684       N  0.76500489  0.85531572  0.87565107    -0.43300
H1685       H  0.77362212  0.84347059  0.94229519     0.12800
H1686       H  0.94882415  0.84301191  0.91669891     0.09300
H1687       H  0.96887605  0.92235581  0.88360673     0.10400
H1688       H  0.86189290  0.79351003  0.81248189     0.16200
C1689       C  0.83132893  0.78513167  0.60546404    -0.02000
C1690       C  0.88803335  0.80509644  0.60884380     0.06600
C1691       C  0.92370268  0.81947598  0.58668190    -0.08000
C1692       C  0.90368036  0.81629701  0.56128474     0.04000
C1693       C  0.84715781  0.80157197  0.55796160    -0.15200
C1694       C  0.81148091  0.78281852  0.58037880    -0.08500
C1695       C  0.91100419  0.82244248  0.63534543     0.05000
C1696       C  0.91068245  0.78509644  0.65335224    -0.09600
C1697       C  0.92530426  0.80068763  0.67975635     0.00000
C1698       C  0.93943032  0.85409632  0.68822569    -0.00200
C1699       C  0.94173630  0.89127779  0.66953445    -0.13200
C1700       C  0.92673530  0.87582289  0.64367409     0.00300
C1701       C  0.92361818  0.76098339  0.69768393     0.39600
C1702       C  0.92372477  0.91453592  0.62650294     0.36200
C1703       C  0.79290758  0.76912113  0.62770130     0.36000
C1704       C  0.94210495  0.82650000  0.53943586     0.36700
N1705       N  0.92232311  0.72900343  0.71197543    -0.44100
N1706       N  0.92063118  0.94515616  0.61278591    -0.44500
N1707       N  0.97381390  0.83469325  0.52228855    -0.41900
N1708       N  0.76220341  0.75646083  0.64553112    -0.43300
H1709       H  0.76725423  0.76565367  0.57847255     0.12800
H1710       H  0.96750307  0.83432709  0.58933820     0.09300
H1711       H  0.89772328  0.74363988  0.64694062     0.10400
H1712       H  0.95432815  0.93299156  0.67519868     0.16200
loop_ 
_geom_bond_atom_site_label_1 
_geom_bond_atom_site_label_2 
_geom_bond_distance 
_geom_bond_site_symmetry_2 
_ccdc_geom_bond_type 
C1            N6   1.365       .  A
C1          N216   1.362       .  A
C1          C229   1.504       .  S
N2            C3   1.373       .  A
N2          C215   1.363       .  A
C3            N4   1.359       .  A
C3           C42   1.508   1_556  S
N4          C219   1.370       .  A
C5            N6   1.362       .  A
C5          N218   1.371       .  A
C5          C244   1.499       .  S
C7            N8   1.360       .  A
C7           N12   1.371       .  A
C7           C20   1.508   1_556  S
N8            C9   1.369       .  A
C9           N10   1.367       .  A
C9           C27   1.502       .  S
N10          C11   1.372       .  A
C11          N12   1.366       .  A
C11          C39   1.505       .  S
C13          C14   1.520       .  S
C13          C19   1.533       .  S
C13          C17   1.565       .  S
C13         C195   1.537       .  S
C14          H21   1.088       .  S
C14          C15   1.358       .  D
C15         C215   1.510   1_554  S
C15         C230   1.570   1_554  S
C16          C18   1.522       .  S
C16         C229   1.562       .  S
C16         C234   1.565       .  S
C16          H22   1.111       .  S
C17          H23   1.085       .  S
C17         C232   1.377   1_554  D
C18         C171   1.479       .  S
C18         C231   1.377       .  D
C19          H24   1.087       .  S
C19          C20   1.358       .  D
C20         C230   1.567   1_554  S
C25          C26   1.524   1_655  S
C25          C31   1.569   1_554  S
C25         C885   1.524       .  S
C25         C152   1.550       .  S
C26          H33   1.088       .  S
C26          C27   1.362   1_554  D
C27         C242   1.568   1_455  S
C28          C32   1.517       .  S
C28         C241   1.566       .  S
C28        C1100   1.572   1_455  S
C28          H34   1.104       .  S
C29         C881   1.518       .  S
C29          H35   1.089       .  S
C29          C30   1.357       .  D
C30         C219   1.509   1_554  S
C30        C1098   1.574   1_554  S
C31          H36   1.085   1_556  S
C31         C246   1.386   1_655  D
C32         C128   1.497       .  S
C32         C245   1.388       .  D
C37          C43   1.572       .  S
C37          C41   1.515       .  S
C37         C466   1.513   1_545  S
C37          C80   1.524       .  S
C38         C465   1.515       .  S
C38          H45   1.089       .  S
C38          C39   1.351   1_554  D
C39         C682   1.573       .  S
C40          C44   1.527       .  S
C40         C681   1.570   1_545  S
C40         C256   1.572       .  S
C40          H46   1.110   1_545  S
C41          H47   1.090       .  S
C41          C42   1.353       .  D
C42         C254   1.570   1_554  S
C43          H48   1.080       .  S
C43         C258   1.387   1_554  D
C44          C99   1.501       .  S
C44         C257   1.385       .  D
O49         Cr67   2.009       .  S
O49          C57   1.264       .  A
O50        Cr923   1.954       .  S
O50         C479   1.253       .  A
C51          O52   1.271       .  A
C51         O478   1.249   1_445  A
C51          C75   1.481       .  S
O52         Cr68   2.017       .  S
O53         Cr68   1.951       .  S
O53          C54   1.256   1_455  A
C54         O911   1.273       .  A
C54         C147   1.489       .  S
O55        Cr497   2.020   1_545  S
O55         C910   1.270       .  A
O56         Cr69   1.941       .  S
O56          C57   1.251       .  A
C57         C200   1.487       .  S
O58         Cr67   1.934       .  S
O58          C66   1.252       .  A
O59        Cr923   2.030       .  S
O59         C488   1.273       .  A
C60          O61   1.258       .  A
C60         O487   1.269   1_545  A
C60         C104   1.502       .  S
O61         Cr68   1.973       .  S
O62         Cr68   2.013   1_655  S
O62          C63   1.267       .  A
C63         O920   1.258       .  A
C63         C123   1.490       .  S
O64        Cr497   1.946   1_545  S
O64         C919   1.254       .  A
O65         Cr69   2.034       .  S
O65          C66   1.273       .  A
C66         C176   1.467       .  S
Cr67        O906   1.942       .  S
Cr67        O915   2.019       .  S
Cr67        O498   1.773       .  S
Cr68        O926   1.773   1_455  S
Cr69        O483   2.034       .  S
Cr69        O492   1.958       .  S
Cr69        O498   1.775       .  S
O70        Cr495   1.780       .  S
O70        Cr924   1.771   1_565  S
O70        Cr497   1.774       .  S
C71          C72   1.407       .  A
C71          C76   1.400       .  A
C71          C85   1.443       .  S
C72          C77   1.469       .  S
C72         C501   1.396   1_545  A
C73          C74   1.394       .  A
C73         C500   1.397       .  A
C73          H92   1.085       .  S
C74         C503   1.418       .  A
C74          C86   1.445       .  S
C75          C76   1.406       .  A
C75         C502   1.422   1_545  A
C76          H91   1.084       .  S
C77          C82   1.408       .  A
C77         C506   1.391       .  A
C78          C79   1.392       .  A
C78         C505   1.390       .  A
C78          H93   1.086       .  S
C79         C508   1.429       .  A
C79          C83   1.446       .  S
C80          C81   1.409       .  A
C80         C507   1.426       .  A
C81          C82   1.405       .  A
C81          H94   1.080       .  S
C82          C84   1.440       .  S
C83          N87   1.157       .  T
C84          N88   1.156   1_455  T
C85          N90   1.157       .  T
C86         N945   1.157       .  T
N89         C942   1.157       .  T
C95          C96   1.407       .  A
C95         C100   1.391       .  A
C95         C109   1.446       .  S
C96         C101   1.495       .  S
C96         C525   1.412   1_545  A
C97          C98   1.412       .  A
C97         C524   1.409       .  A
C97         H116   1.085       .  S
C98         C527   1.412       .  A
C98         C110   1.440       .  S
C99         C100   1.407       .  A
C99         C526   1.412   1_545  A
C100        H115   1.080       .  S
C101        C106   1.409       .  A
C101        C530   1.403   1_545  A
C102        C103   1.408       .  A
C102        C529   1.404       .  A
C102        H117   1.085       .  S
C103        C532   1.419       .  A
C103        C107   1.443       .  S
C104        C105   1.412       .  A
C104        C531   1.420   1_545  A
C105        C106   1.402       .  A
C105        H118   1.085       .  S
C106        C108   1.445       .  S
C107        N111   1.157       .  T
C108        N112   1.157       .  T
C109        N114   1.157       .  T
C110        N327   1.156       .  T
N113        C324   1.157       .  T
C119        C120   1.421   1_455  A
C119        C124   1.402       .  A
C119        C133   1.443       .  S
C120        C125   1.504   1_655  S
C120        C977   1.406       .  A
C121        C122   1.401       .  A
C121        C976   1.402       .  A
C121        H140   1.084       .  S
C122        C979   1.415       .  A
C122        C134   1.444       .  S
C123        C124   1.404   1_655  A
C123        C978   1.416       .  A
C124        H139   1.085       .  S
C125        C126   1.397       .  A
C125        C986   1.420   1_455  A
C126        C127   1.397       .  A
C126        H141   1.084       .  S
C127        C128   1.424       .  A
C127        C131   1.441       .  S
C128        C985   1.399   1_455  A
C129        C130   1.411       .  A
C129        C984   1.409       .  A
C129        H142   1.084       .  S
C130        C981   1.413       .  A
C130        C132   1.442       .  S
C131        N135   1.157       .  T
C132        N136   1.157   1_545  T
C133        N138   1.157       .  T
C134        N137   1.157       .  T
C143        C144   1.412   1_455  A
C143        C148   1.400       .  A
C143        C157   1.443       .  S
C144        C149   1.503       .  S
C144       C1001   1.410       .  A
C145        C146   1.403       .  A
C145       C1000   1.402       .  A
C145        H164   1.085       .  S
C146       C1003   1.419       .  A
C146        C158   1.443       .  S
C147        C148   1.407   1_655  A
C147       C1002   1.412       .  A
C148        H163   1.085       .  S
C149        C150   1.410   1_655  A
C149       C1010   1.405       .  A
C150        C151   1.411       .  A
C150        H165   1.085       .  S
C151        C152   1.419   1_455  A
C151        C155   1.444       .  S
C152       C1009   1.417       .  A
C153        C154   1.394       .  A
C153       C1008   1.418       .  A
C153        H166   1.085       .  S
C154       C1005   1.403       .  A
C154        C156   1.445       .  S
C155        N373   1.158       .  T
C156        N160   1.157       .  T
C157        N162   1.157       .  T
C158        N161   1.157   1_545  T
N159        C369   1.158       .  T
C167        C168   1.402       .  A
C167        C172   1.390       .  A
C167        C181   1.446       .  S
C168        C173   1.469       .  S
C168        C169   1.405       .  A
C169        C170   1.403       .  A
C169        H188   1.085       .  S
C170        C171   1.409       .  A
C170        C182   1.440       .  S
C171        C172   1.404       .  A
C172        H187   1.074       .  S
C173        C174   1.386       .  A
C173        C178   1.411       .  A
C174        C175   1.385       .  A
C174        H189   1.086       .  S
C175        C176   1.411       .  A
C175        C179   1.433       .  S
C176        C177   1.405       .  A
C177        C178   1.408       .  A
C177        H190   1.084       .  S
C178        C180   1.442       .  S
C179        N611   1.152       .  T
C180        N184   1.157       .  T
C181        N186   1.157       .  T
C182        N185   1.157       .  T
N183        C607   1.152       .  T
C191        C192   1.401       .  A
C191        C196   1.392       .  A
C191        C205   1.446       .  S
C192        C197   1.475       .  S
C192        C193   1.399       .  A
C193        C194   1.405       .  A
C193        H212   1.085       .  S
C194        C195   1.422       .  A
C194        C206   1.443       .  S
C195        C196   1.416       .  A
C196        H211   1.080       .  S
C197        C198   1.403       .  A
C197        C202   1.403       .  A
C198        C199   1.405       .  A
C198        H213   1.085       .  S
C199        C200   1.415       .  A
C199        C203   1.442       .  S
C200        C201   1.411       .  A
C201        C202   1.390       .  A
C201        H214   1.084       .  S
C202        C204   1.445       .  S
C203        N207   1.157       .  T
C204        N208   1.157       .  T
C205        N210   1.157       .  T
C206        N209   1.157       .  T
C215        N220   1.372       .  A
N216        C217   1.371       .  A
C217        N218   1.364       .  A
C217        C256   1.506       .  S
C219        N220   1.365       .  A
C221        N222   1.358       .  A
C221        N226   1.372       .  A
C221        C234   1.504       .  S
N222        C223   1.367       .  A
C223        N224   1.363       .  A
C223        C241   1.503       .  S
N224        C225   1.372       .  A
C225        N226   1.367       .  A
C225        C253   1.508       .  S
C227        C228   1.523       .  S
C227        C233   1.534       .  S
C227        C231   1.568       .  S
C227        C409   1.541       .  S
C228        H235   1.089       .  S
C228        C229   1.362       .  D
C230        C232   1.518       .  S
C230        H236   1.111       .  S
C231        H237   1.084       .  S
C232        C385   1.474       .  S
C233        H238   1.087       .  S
C233        C234   1.358       .  D
C239        C240   1.521       .  S
C239        C245   1.580       .  S
C239       C1099   1.519   1_455  S
C239        C366   1.547       .  S
C240        H247   1.089       .  S
C240        C241   1.359       .  D
C242        C246   1.526   1_655  S
C242        C886   1.561       .  S
C242        H248   1.109   1_655  S
C243       C1095   1.520       .  S
C243        H249   1.086       .  S
C243        C244   1.351       .  D
C244        C884   1.562       .  S
C245        H250   1.080       .  S
C246        C342   1.495       .  S
C251        C680   1.513   1_545  S
C251        C257   1.576       .  S
C251        C255   1.520       .  S
C251        C294   1.533       .  S
C252        C679   1.518       .  S
C252        H259   1.088       .  S
C252        C253   1.354       .  D
C253        C468   1.573       .  S
C254        C467   1.568   1_546  S
C254        C258   1.532       .  S
C254        H260   1.108   1_545  S
C255        H261   1.090       .  S
C255        C256   1.359       .  D
C257        H262   1.083       .  S
C258        C313   1.501       .  S
O263       Cr281   2.030       .  S
O263        C271   1.272       .  A
O264      Cr1137   1.938   1_455  S
O264        C693   1.249       .  A
C265        O692   1.257       .  A
C265        O266   1.265   1_565  A
C265        C289   1.481       .  S
O266       Cr282   2.002       .  S
O267       Cr282   1.968       .  S
O267        C268   1.258       .  A
C268       O1125   1.272   1_455  A
C268        C361   1.499       .  S
O269       Cr711   2.037       .  S
O269       C1124   1.275       .  A
O270       Cr283   1.929       .  S
O270        C271   1.253       .  A
C271        C414   1.491       .  S
O272       Cr281   1.965       .  S
O272        C280   1.256       .  A
O273      Cr1137   2.019   1_455  S
O273        C702   1.270       .  A
C274        O701   1.267       .  A
C274        O275   1.260   1_565  A
C274        C318   1.480       .  S
O275       Cr282   1.951       .  S
O276       Cr282   2.023       .  S
O276        C277   1.269       .  A
C277       O1134   1.254   1_445  A
C277        C337   1.479       .  S
O278       Cr711   1.971       .  S
O278       C1133   1.258       .  A
O279       Cr283   2.014       .  S
O279        C280   1.265       .  A
C280        C390   1.479       .  S
Cr281      O1120   1.959       .  S
Cr281      O1129   2.032       .  S
Cr281       O712   1.776       .  S
Cr282      O1140   1.771   1_545  S
Cr283       O697   2.027       .  S
Cr283       O706   1.947       .  S
Cr283       O712   1.779       .  S
O284       Cr709   1.777   1_545  S
O284      Cr1138   1.774       .  S
O284       Cr711   1.774       .  S
C285        C286   1.405   1_545  A
C285        C290   1.397       .  A
C285        C299   1.441       .  S
C286        C291   1.476   1_565  S
C286        C715   1.400       .  A
C287        C714   1.395       .  A
C287        C288   1.392       .  A
C287        H306   1.086       .  S
C288        C717   1.420       .  A
C288        C300   1.446       .  S
C289        C716   1.416       .  A
C289        C290   1.407   1_565  A
C290        H305   1.085       .  S
C291        C720   1.391       .  A
C291        C296   1.407       .  A
C292        C719   1.390       .  A
C292        C293   1.389       .  A
C292        H307   1.086       .  S
C293        C722   1.430       .  A
C293        C297   1.448       .  S
C294        C721   1.431       .  A
C294        C295   1.409       .  A
C295        C296   1.403       .  A
C295        H308   1.080       .  S
C296        C298   1.441   1_545  S
C297        N301   1.158       .  T
C298        N302   1.156       .  T
C299        N304   1.156       .  T
C300       N1159   1.157       .  T
N303       C1156   1.157       .  T
C309        C310   1.401   1_545  A
C309        C314   1.390       .  A
C309        C323   1.443       .  S
C310        C315   1.484       .  S
C310        C739   1.406       .  A
C311        C738   1.409       .  A
C311        C312   1.412       .  A
C311        H330   1.085       .  S
C312        C741   1.413       .  A
C312        C324   1.441       .  S
C313        C740   1.416   1_545  A
C313        C314   1.412       .  A
C314        H329   1.082       .  S
C315        C744   1.403       .  A
C315        C320   1.412   1_565  A
C316        C743   1.401       .  A
C316        C317   1.405       .  A
C316        H331   1.085       .  S
C317        C746   1.420       .  A
C317        C321   1.443       .  S
C318        C745   1.417       .  A
C318        C319   1.404   1_565  A
C319        C320   1.394       .  A
C319        H332   1.085       .  S
C320        C322   1.445       .  S
C321        N325   1.157       .  T
C322        N326   1.157       .  T
C323        N328   1.156       .  T
C333        C334   1.414       .  A
C333        C338   1.400       .  A
C333        C347   1.443       .  S
C334        C339   1.489       .  S
C334       C1191   1.402   1_455  A
C335       C1190   1.406       .  A
C335        C336   1.403       .  A
C335        H354   1.084       .  S
C336       C1193   1.414       .  A
C336        C348   1.442       .  S
C337       C1192   1.414   1_455  A
C337        C338   1.402       .  A
C338        H353   1.085       .  S
C339        C340   1.393       .  A
C339       C1200   1.413   1_455  A
C340        C341   1.389       .  A
C340        H355   1.086       .  S
C341        C342   1.422       .  A
C341        C345   1.441       .  S
C342       C1199   1.409   1_455  A
C343       C1198   1.398       .  A
C343        C344   1.402       .  A
C343        H356   1.085       .  S
C344       C1195   1.419       .  A
C344        C346   1.435       .  S
C345        N349   1.157       .  T
C346        N350   1.154       .  T
C347        N352   1.156       .  T
C348        N351   1.157       .  T
C357        C358   1.407       .  A
C357        C362   1.402       .  A
C357        C371   1.443       .  S
C358        C363   1.494       .  S
C358       C1215   1.404   1_455  A
C359       C1214   1.410       .  A
C359        C360   1.407       .  A
C359        H378   1.083       .  S
C360       C1217   1.414       .  A
C360        C372   1.444       .  S
C361       C1216   1.419   1_455  A
C361        C362   1.411       .  A
C362        H377   1.084       .  S
C363        C364   1.407       .  A
C363       C1224   1.403   1_455  A
C364        C365   1.410       .  A
C364        H379   1.081       .  S
C365        C366   1.420       .  A
C365        C369   1.441       .  S
C366       C1223   1.419   1_455  A
C367       C1222   1.419       .  A
C367        C368   1.393       .  A
C367        H380   1.078       .  S
C368       C1219   1.406       .  A
C368        C370   1.441       .  S
C370        N374   1.156       .  T
C371        N376   1.157       .  T
C372        N375   1.157       .  T
C381        C382   1.409       .  A
C381        C386   1.397       .  A
C381        C395   1.443       .  S
C382        C387   1.483       .  S
C382        C383   1.408       .  A
C383        C384   1.397       .  A
C383        H402   1.085       .  S
C384        C385   1.402       .  A
C384        C396   1.437       .  S
C385        C386   1.403       .  A
C386        H401   1.079       .  S
C387        C388   1.388       .  A
C387        C392   1.417       .  A
C388        C389   1.380       .  A
C388        H403   1.083       .  S
C389        C390   1.411       .  A
C389        C393   1.430       .  S
C390        C391   1.405       .  A
C391        C392   1.412       .  A
C391        H404   1.084       .  S
C392        C394   1.441       .  S
C393        N825   1.153       .  T
C394        N398   1.157       .  T
C395        N400   1.157       .  T
C396        N399   1.155       .  T
N397        C821   1.153       .  T
C405        C406   1.404       .  A
C405        C410   1.395       .  A
C405        C419   1.445       .  S
C406        C411   1.483       .  S
C406        C407   1.401       .  A
C407        C408   1.408       .  A
C407        H426   1.085       .  S
C408        C409   1.423       .  A
C408        C420   1.441       .  S
C409        C410   1.414       .  A
C410        H425   1.082       .  S
C411        C412   1.409       .  A
C411        C416   1.403       .  A
C412        C413   1.410       .  A
C412        H427   1.079       .  S
C413        C414   1.414       .  A
C413        C417   1.443       .  S
C414        C415   1.412       .  A
C415        C416   1.388       .  A
C415        H428   1.084       .  S
C416        C418   1.447       .  S
C417        N421   1.157       .  T
C418        N422   1.157       .  T
C419        N424   1.157       .  T
C420        N423   1.157       .  T
C429        N644   1.367       .  A
C429        N434   1.371       .  A
C429        C657   1.511       .  S
N430        C643   1.364       .  A
N430        C431   1.371       .  A
C431        N432   1.365       .  A
C431        C470   1.507       .  S
N432        C647   1.370       .  A
C433        N646   1.367       .  A
C433        N434   1.363       .  A
C433        C672   1.505       .  S
C435        N436   1.356       .  A
C435        N440   1.373       .  A
C435        C448   1.497       .  S
N436        C437   1.365       .  A
C437        N438   1.358       .  A
C437        C455   1.494       .  S
N438        C439   1.370       .  A
C439        N440   1.367       .  A
C439        C467   1.505       .  S
C441        C442   1.520       .  S
C441        C447   1.529       .  S
C441        C445   1.568       .  S
C441        C623   1.532       .  S
C442        H449   1.090       .  S
C442        C443   1.357   1_554  D
C443        C643   1.502       .  S
C443        C658   1.562       .  S
C444        C657   1.569       .  S
C444        C662   1.566       .  S
C444        C446   1.519       .  S
C444        H450   1.111       .  S
C445        H451   1.084       .  S
C445        C660   1.378   1_554  D
C446        C599   1.483       .  S
C446        C659   1.382       .  D
C447        H452   1.087       .  S
C447        C448   1.357       .  D
C448        C658   1.565   1_554  S
C453        C454   1.519   1_655  S
C453        C459   1.578   1_655  S
C453       C1313   1.520       .  S
C453        C580   1.543       .  S
C454        H461   1.089       .  S
C454        C455   1.355       .  D
C455        C670   1.562   1_554  S
C456        C669   1.572       .  S
C456        C460   1.517       .  S
C456       C1528   1.568   1_455  S
C456        H462   1.106       .  S
C457       C1309   1.511       .  S
C457        H463   1.089       .  S
C457        C458   1.350   1_554  D
C458        C647   1.500       .  S
C458       C1526   1.562       .  S
C459        H464   1.077   1_554  S
C459        C674   1.385   1_554  D
C460        C556   1.491       .  S
C460        C673   1.387       .  D
C465        C471   1.570       .  S
C465        C469   1.522       .  S
C465        C508   1.529       .  S
C466        H473   1.089       .  S
C466        C467   1.352       .  D
C468        C472   1.527       .  S
C468        C684   1.571       .  S
C468        H474   1.110       .  S
C469        H475   1.090       .  S
C469        C470   1.358   1_554  D
C470        C682   1.574       .  S
C471        H476   1.083       .  S
C471        C686   1.382   1_554  D
C472        C527   1.497       .  S
C472        C685   1.387       .  D
O477       Cr495   2.027       .  S
O477        C485   1.270       .  A
O478      Cr1351   1.934       .  S
C479        O480   1.264       .  A
C479        C503   1.481       .  S
O480       Cr496   2.004       .  S
O481       Cr496   1.957       .  S
O481        C482   1.257       .  A
C482       O1339   1.271   1_455  A
C482        C575   1.491   1_455  S
O483       C1338   1.275       .  A
O484       Cr497   1.931       .  S
O484        C485   1.252       .  A
C485        C628   1.483       .  S
O486       Cr495   1.971       .  S
O486        C494   1.257       .  A
O487      Cr1351   2.021   1_455  S
C488        O489   1.262       .  A
C488        C532   1.495       .  S
O489       Cr496   1.955       .  S
O490       Cr496   2.017       .  S
O490        C491   1.268   1_455  A
C491       O1348   1.251       .  A
C491        C551   1.478       .  S
O492       C1347   1.254       .  A
O493       Cr497   2.019       .  S
O493        C494   1.267       .  A
C494        C604   1.483       .  S
Cr495      O1334   1.968       .  S
Cr495      O1343   2.021       .  S
Cr496      O1354   1.768       .  S
O498      Cr1352   1.773       .  S
C499        C500   1.406       .  A
C499        C504   1.399       .  A
C499        C513   1.444       .  S
C500        C505   1.472       .  S
C501        C502   1.394       .  A
C501        H520   1.086       .  S
C502        C514   1.446       .  S
C503        C504   1.408       .  A
C504        H519   1.084       .  S
C505        C510   1.408       .  A
C506        C507   1.384       .  A
C506        H521   1.086       .  S
C507        C511   1.448       .  S
C508        C509   1.409       .  A
C509        C510   1.402       .  A
C509        H522   1.080       .  S
C510        C512   1.443       .  S
C511        N515   1.158       .  T
C512        N516   1.157       .  T
C513        N518   1.157       .  T
C514       N1373   1.158   1_455  T
N517       C1370   1.157       .  T
C523        C524   1.407       .  A
C523        C528   1.391       .  A
C523        C537   1.446       .  S
C524        C529   1.490       .  S
C525        C526   1.415       .  A
C525        H544   1.084       .  S
C526        C538   1.441       .  S
C527        C528   1.408       .  A
C528        H543   1.083       .  S
C529        C534   1.408       .  A
C530        C531   1.408       .  A
C530        H545   1.085       .  S
C531        C535   1.443       .  S
C532        C533   1.410       .  A
C533        C534   1.396       .  A
C533        H546   1.085       .  S
C534        C536   1.444       .  S
C535        N539   1.157       .  T
C536        N540   1.157       .  T
C537        N542   1.157       .  T
C538        N755   1.157       .  T
N541        C752   1.157       .  T
C547        C548   1.420       .  A
C547        C552   1.394       .  A
C547        C561   1.444       .  S
C548        C553   1.490       .  S
C548       C1405   1.402   1_455  A
C549       C1404   1.406       .  A
C549        C550   1.402       .  A
C549        H568   1.084       .  S
C550       C1407   1.414       .  A
C550        C562   1.444       .  S
C551       C1406   1.419       .  A
C551        C552   1.400   1_655  A
C552        H567   1.085       .  S
C553        C554   1.391       .  A
C553       C1414   1.419   1_455  A
C554        C555   1.385       .  A
C554        H569   1.085       .  S
C555        C556   1.424       .  A
C555        C559   1.442       .  S
C556       C1413   1.404   1_455  A
C557       C1412   1.402       .  A
C557        C558   1.407       .  A
C557        H570   1.085       .  S
C558       C1409   1.422       .  A
C558        C560   1.441       .  S
C559        N563   1.157       .  T
C560        N564   1.157       .  T
C561        N566   1.157       .  T
C562        N565   1.157       .  T
C571        C572   1.406   1_455  A
C571        C576   1.398       .  A
C571        C585   1.445       .  S
C572        C577   1.483       .  S
C572       C1429   1.402       .  A
C573       C1428   1.404       .  A
C573        C574   1.409       .  A
C573        H592   1.085       .  S
C574       C1431   1.420       .  A
C574        C586   1.443       .  S
C575       C1430   1.417       .  A
C575        C576   1.411   1_655  A
C576        H591   1.085       .  S
C577        C578   1.403   1_655  A
C577       C1438   1.401       .  A
C578        C579   1.409       .  A
C578        H593   1.083       .  S
C579        C580   1.422   1_455  A
C579        C583   1.439       .  S
C580       C1437   1.418       .  A
C581       C1436   1.418       .  A
C581        C582   1.395       .  A
C581        H594   1.083       .  S
C582       C1433   1.402       .  A
C582        C584   1.444       .  S
C583        N801   1.158       .  T
C584        N588   1.157       .  T
C585        N590   1.157       .  T
C586        N589   1.157       .  T
N587        C797   1.158       .  T
C595        C596   1.409       .  A
C595        C600   1.398       .  A
C595        C609   1.444       .  S
C596        C601   1.489       .  S
C596        C597   1.409       .  A
C597        C598   1.404       .  A
C597        H616   1.085       .  S
C598        C599   1.407       .  A
C598        C610   1.440       .  S
C599        C600   1.406       .  A
C600        H615   1.081       .  S
C601        C602   1.391       .  A
C601        C606   1.418       .  A
C602        C603   1.389       .  A
C602        H617   1.086       .  S
C603        C604   1.413       .  A
C603        C607   1.431       .  S
C604        C605   1.404       .  A
C605        C606   1.412       .  A
C605        H618   1.084       .  S
C606        C608   1.441       .  S
C608        N612   1.156       .  T
C609        N614   1.157       .  T
C610        N613   1.156       .  T
C619        C620   1.401       .  A
C619        C624   1.393       .  A
C619        C633   1.445       .  S
C620        C625   1.474       .  S
C620        C621   1.400       .  A
C621        C622   1.403       .  A
C621        H640   1.085       .  S
C622        C623   1.422       .  A
C622        C634   1.441       .  S
C623        C624   1.416       .  A
C624        H639   1.082       .  S
C625        C626   1.407       .  A
C625        C630   1.402       .  A
C626        C627   1.409       .  A
C626        H641   1.085       .  S
C627        C628   1.413       .  A
C627        C631   1.442       .  S
C628        C629   1.409       .  A
C629        C630   1.386       .  A
C629        H642   1.084       .  S
C630        C632   1.447       .  S
C631        N635   1.157       .  T
C632        N636   1.157       .  T
C633        N638   1.157       .  T
C634        N637   1.157       .  T
C643        N648   1.367       .  A
N644        C645   1.375       .  A
C645        N646   1.358       .  A
C645        C684   1.506       .  S
C647        N648   1.359       .  A
C649        N650   1.361       .  A
C649        N654   1.369       .  A
C649        C662   1.509       .  S
N650        C651   1.371       .  A
C651        N652   1.366       .  A
C651        C669   1.510       .  S
N652        C653   1.372       .  A
C653        N654   1.366       .  A
C653        C681   1.501       .  S
C655        C656   1.522       .  S
C655        C661   1.532       .  S
C655        C659   1.570       .  S
C655        C837   1.549       .  S
C656        H663   1.088       .  S
C656        C657   1.362       .  D
C658        C660   1.521       .  S
C658        H664   1.111       .  S
C659        H665   1.084       .  S
C660        C813   1.480       .  S
C661        H666   1.088       .  S
C661        C662   1.357       .  D
C667        C668   1.530       .  S
C667        C673   1.576       .  S
C667       C1527   1.511   1_455  S
C667        C794   1.538   1_455  S
C668        H675   1.089       .  S
C668        C669   1.357       .  D
C670        C674   1.517       .  S
C670       C1314   1.565   1_456  S
C670        H676   1.108       .  S
C671       C1523   1.522       .  S
C671        H677   1.089       .  S
C671        C672   1.358       .  D
C672       C1312   1.564       .  S
C673        H678   1.082       .  S
C674        C770   1.491       .  S
C679        C685   1.575       .  S
C679        C683   1.514       .  S
C679        C722   1.528       .  S
C680        H687   1.089       .  S
C680        C681   1.351       .  D
C682        C686   1.532       .  S
C682        H688   1.110       .  S
C683        H689   1.090       .  S
C683        C684   1.351       .  D
C685        H690   1.082       .  S
C686        C741   1.498       .  S
O691       Cr709   2.011       .  S
O691        C699   1.265       .  A
O692      Cr1565   1.966       .  S
C693        O694   1.268       .  A
C693        C717   1.480       .  S
O694       Cr710   2.020       .  S
O695       Cr710   1.953       .  S
O695        C696   1.259   1_455  A
C696       O1553   1.274       .  A
C696        C789   1.495       .  S
O697       C1552   1.271       .  A
O698       Cr711   1.963   1_565  S
O698        C699   1.255       .  A
C699        C842   1.491       .  S
O700       Cr709   1.932       .  S
O700        C708   1.251       .  A
O701      Cr1565   2.017       .  S
C702        O703   1.262       .  A
C702        C746   1.498       .  S
O703       Cr710   1.974       .  S
O704       Cr710   2.013       .  S
O704        C705   1.265   1_455  A
C705       O1562   1.254       .  A
C705        C765   1.482       .  S
O706       C1561   1.252       .  A
O707       Cr711   2.043   1_565  S
O707        C708   1.274       .  A
C708        C818   1.472       .  S
Cr709      O1548   1.937       .  S
Cr709      O1557   2.020   1_565  S
Cr710      O1568   1.773   1_455  S
O712      Cr1566   1.768       .  S
C713        C714   1.408       .  A
C713        C718   1.402       .  A
C713        C727   1.443       .  S
C714        C719   1.471       .  S
C715        C716   1.399       .  A
C715        H734   1.085       .  S
C716        C728   1.444       .  S
C717        C718   1.407       .  A
C718        H733   1.084       .  S
C719        C724   1.409       .  A
C720        C721   1.394       .  A
C720        H735   1.086       .  S
C721        C725   1.447       .  S
C722        C723   1.408       .  A
C723        C724   1.404       .  A
C723        H736   1.080       .  S
C724        C726   1.443       .  S
C725        N729   1.158       .  T
C726        N730   1.157       .  T
C727        N732   1.157       .  T
C728       N1587   1.157       .  T
N731       C1584   1.158       .  T
C737        C738   1.407       .  A
C737        C742   1.391       .  A
C737        C751   1.446       .  S
C738        C743   1.489       .  S
C739        C740   1.408       .  A
C739        H758   1.085       .  S
C740        C752   1.440       .  S
C741        C742   1.407       .  A
C742        H757   1.081       .  S
C743        C748   1.408       .  A
C744        C745   1.403       .  A
C744        H759   1.085       .  S
C745        C749   1.444       .  S
C746        C747   1.411       .  A
C747        C748   1.401       .  A
C747        H760   1.084       .  S
C748        C750   1.444       .  S
C749        N753   1.157       .  T
C750        N754   1.157       .  T
C751        N756   1.157       .  T
C761        C762   1.422   1_455  A
C761        C766   1.396       .  A
C761        C775   1.443       .  S
C762        C767   1.499       .  S
C762       C1619   1.405       .  A
C763       C1618   1.401       .  A
C763        C764   1.398       .  A
C763        H782   1.085       .  S
C764       C1621   1.422       .  A
C764        C776   1.446       .  S
C765       C1620   1.415       .  A
C765        C766   1.400   1_655  A
C766        H781   1.085       .  S
C767        C768   1.395   1_655  A
C767       C1628   1.422       .  A
C768        C769   1.390       .  A
C768        H783   1.084       .  S
C769        C770   1.419       .  A
C769        C773   1.440       .  S
C770       C1627   1.403   1_455  A
C771       C1626   1.405       .  A
C771        C772   1.406       .  A
C771        H784   1.084       .  S
C772       C1623   1.416       .  A
C772        C774   1.440       .  S
C773        N777   1.157       .  T
C774        N778   1.156       .  T
C775        N780   1.157       .  T
C776        N779   1.157       .  T
C785        C786   1.405   1_455  A
C785        C790   1.396       .  A
C785        C799   1.445       .  S
C786        C791   1.482       .  S
C786       C1643   1.402       .  A
C787       C1642   1.405       .  A
C787        C788   1.406       .  A
C787        H806   1.085       .  S
C788       C1645   1.417       .  A
C788        C800   1.443       .  S
C789       C1644   1.419       .  A
C789        C790   1.412   1_655  A
C790        H805   1.084       .  S
C791        C792   1.403       .  A
C791       C1652   1.401       .  A
C792        C793   1.408       .  A
C792        H807   1.082       .  S
C793        C794   1.420       .  A
C793        C797   1.442       .  S
C794       C1651   1.417   1_655  A
C795       C1650   1.418       .  A
C795        C796   1.393       .  A
C795        H808   1.085       .  S
C796       C1647   1.403       .  A
C796        C798   1.445       .  S
C798        N802   1.157       .  T
C799        N804   1.157       .  T
C800        N803   1.157       .  T
C809        C810   1.404       .  A
C809        C814   1.392       .  A
C809        C823   1.446       .  S
C810        C815   1.475       .  S
C810        C811   1.406       .  A
C811        C812   1.404       .  A
C811        H830   1.085       .  S
C812        C813   1.408       .  A
C812        C824   1.439       .  S
C813        C814   1.405       .  A
C814        H829   1.080       .  S
C815        C816   1.387       .  A
C815        C820   1.413       .  A
C816        C817   1.386       .  A
C816        H831   1.084       .  S
C817        C818   1.411       .  A
C817        C821   1.435   1_565  S
C818        C819   1.405       .  A
C819        C820   1.410       .  A
C819        H832   1.084       .  S
C820        C822   1.442       .  S
C822        N826   1.157       .  T
C823        N828   1.157       .  T
C824        N827   1.156       .  T
C833        C834   1.402       .  A
C833        C838   1.396       .  A
C833        C847   1.446       .  S
C834        C839   1.486       .  S
C834        C835   1.403       .  A
C835        C836   1.409       .  A
C835        H854   1.085       .  S
C836        C837   1.422       .  A
C836        C848   1.442       .  S
C837        C838   1.420       .  A
C838        H853   1.081       .  S
C839        C840   1.407       .  A
C839        C844   1.403       .  A
C840        C841   1.410       .  A
C840        H855   1.084       .  S
C841        C842   1.414       .  A
C841        C845   1.442       .  S
C842        C843   1.409       .  A
C843        C844   1.395       .  A
C843        H856   1.080       .  S
C844        C846   1.445       .  S
C845        N849   1.157       .  T
C846        N850   1.157   1_565  T
C847        N852   1.157       .  T
C848        N851   1.157       .  T
C857       N1072   1.365       .  A
C857        N862   1.372       .  A
C857       C1085   1.513       .  S
N858       C1071   1.364       .  A
N858        C859   1.373       .  A
C859        N860   1.365       .  A
C859        C898   1.509       .  S
N860       C1075   1.371       .  A
C861       N1074   1.370       .  A
C861        N862   1.364       .  A
C861       C1100   1.510       .  S
C863        N864   1.356       .  A
C863        N868   1.373       .  A
C863        C876   1.502       .  S
N864        C865   1.367       .  A
C865        N866   1.362       .  A
C865        C883   1.500       .  S
N866        C867   1.371       .  A
C867        N868   1.368       .  A
C867        C895   1.505       .  S
C869        C870   1.521       .  S
C869        C875   1.532       .  S
C869        C873   1.566       .  S
C869       C1051   1.534       .  S
C870        H877   1.090       .  S
C870        C871   1.360   1_554  D
C871       C1071   1.506       .  S
C871       C1086   1.565       .  S
C872       C1085   1.572       .  S
C872       C1090   1.571       .  S
C872        C874   1.516       .  S
C872        H878   1.111       .  S
C873        H879   1.084       .  S
C873       C1088   1.376   1_554  D
C874       C1027   1.475       .  S
C874       C1087   1.377       .  D
C875        H880   1.087       .  S
C875        C876   1.359       .  D
C876       C1086   1.565   1_554  S
C881        C882   1.523       .  S
C881        C887   1.576       .  S
C881       C1008   1.544       .  S
C882        H889   1.089       .  S
C882        C883   1.358       .  D
C883       C1098   1.565   1_554  S
C884       C1097   1.567       .  S
C884        C888   1.526       .  S
C884        H890   1.109       .  S
C885        H891   1.085       .  S
C885        C886   1.353   1_554  D
C886       C1075   1.500       .  S
C887        H892   1.078   1_554  S
C887       C1102   1.385   1_554  D
C888        C984   1.497       .  S
C888       C1101   1.389       .  D
C893       C1322   1.513   1_545  S
C893        C899   1.578       .  S
C893        C897   1.519       .  S
C893        C936   1.533       .  S
C894       C1321   1.519       .  S
C894        H901   1.088       .  S
C894        C895   1.355       .  D
C895       C1538   1.568   1_554  S
C896       C1537   1.571       .  S
C896        C900   1.531   1_565  S
C896       C1112   1.572   1_565  S
C896        H902   1.107       .  S
C897        H903   1.090       .  S
C897        C898   1.357   1_554  D
C898       C1110   1.575       .  S
C899        H904   1.083       .  S
C899       C1114   1.388   1_554  D
C900        C955   1.507       .  S
C900       C1113   1.392       .  D
O905       Cr923   2.025   1_655  S
O905        C913   1.271       .  A
O906       C1335   1.250       .  A
C907       O1334   1.256       .  A
C907        O908   1.263   1_565  A
C907        C931   1.478       .  S
O908       Cr924   2.000       .  S
O909       Cr924   1.978       .  S
O909        C910   1.259       .  A
C910       C1003   1.499       .  S
O911      Cr1353   2.034       .  S
O912       Cr925   1.924       .  S
O912        C913   1.251       .  A
C913       C1056   1.487       .  S
O914       Cr923   1.956   1_655  S
O914        C922   1.255       .  A
O915       C1344   1.270       .  A
C916       O1343   1.269       .  A
C916        O917   1.261   1_565  A
C916        C960   1.482       .  S
O917       Cr924   1.953       .  S
O918       Cr924   2.027       .  S
O918        C919   1.271       .  A
C919        C979   1.478       .  S
O920      Cr1353   1.964       .  S
O921       Cr925   2.013       .  S
O921        C922   1.265       .  A
C922       C1032   1.472       .  S
Cr923      O1354   1.774       .  S
Cr925      O1339   2.023       .  S
Cr925      O1348   1.942       .  S
Cr925      O1354   1.778   1_655  S
O926      Cr1351   1.781   1_545  S
O926      Cr1353   1.774       .  S
C927        C928   1.405   1_545  A
C927        C932   1.395       .  A
C927        C941   1.439       .  S
C928        C933   1.475   1_565  S
C928       C1357   1.401       .  A
C929       C1356   1.395       .  A
C929        C930   1.392       .  A
C929        H948   1.086       .  S
C930       C1359   1.419       .  A
C930        C942   1.445       .  S
C931       C1358   1.415       .  A
C931        C932   1.405   1_565  A
C932        H947   1.085       .  S
C933       C1362   1.390       .  A
C933        C938   1.408       .  A
C934       C1361   1.390       .  A
C934        C935   1.391       .  A
C934        H949   1.086       .  S
C935       C1364   1.430       .  A
C935        C939   1.448       .  S
C936       C1363   1.432       .  A
C936        C937   1.409       .  A
C937        C938   1.405       .  A
C937        H950   1.081       .  S
C938        C940   1.442   1_545  S
C939        N943   1.158       .  T
C940        N944   1.156       .  T
C941        N946   1.156       .  T
C951        C952   1.401   1_545  A
C951        C956   1.391       .  A
C951        C965   1.444       .  S
C952        C957   1.490       .  S
C952       C1381   1.409       .  A
C953       C1380   1.409       .  A
C953        C954   1.414       .  A
C953        H972   1.084       .  S
C954       C1383   1.414       .  A
C954        C966   1.442       .  S
C955       C1382   1.416   1_545  A
C955        C956   1.413       .  A
C956        H971   1.082       .  S
C957       C1386   1.404       .  A
C957        C962   1.414   1_565  A
C958       C1385   1.401       .  A
C958        C959   1.406       .  A
C958        H973   1.085       .  S
C959       C1388   1.422       .  A
C959        C963   1.444       .  S
C960       C1387   1.416       .  A
C960        C961   1.404   1_565  A
C961        C962   1.396       .  A
C961        H974   1.085       .  S
C962        C964   1.445       .  S
C963        N967   1.157       .  T
C964        N968   1.158       .  T
C965        N970   1.156       .  T
C966       N1183   1.157       .  T
N969       C1180   1.157       .  T
C975        C976   1.413       .  A
C975        C980   1.400       .  A
C975        C989   1.442       .  S
C976        C981   1.490       .  S
C977        C978   1.403       .  A
C977        H996   1.084       .  S
C978        C990   1.443       .  S
C979        C980   1.402       .  A
C980        H995   1.085       .  S
C981        C982   1.392       .  A
C982        C983   1.390       .  A
C982        H997   1.086       .  S
C983        C984   1.424       .  A
C983        C987   1.441       .  S
C985        C986   1.405       .  A
C985        H998   1.085       .  S
C986        C988   1.435       .  S
C987        N991   1.157       .  T
C988        N992   1.154       .  T
C989        N994   1.156       .  T
C990        N993   1.157       .  T
C999       C1000   1.408       .  A
C999       C1004   1.405       .  A
C999       C1013   1.444       .  S
C1000      C1005   1.492       .  S
C1001      C1002   1.406       .  A
C1001      H1020   1.084       .  S
C1002      C1014   1.444       .  S
C1003      C1004   1.412       .  A
C1004      H1019   1.084       .  S
C1005      C1006   1.406       .  A
C1006      C1007   1.409       .  A
C1006      H1021   1.083       .  S
C1007      C1008   1.422       .  A
C1007      C1011   1.440       .  S
C1009      C1010   1.393       .  A
C1009      H1022   1.078       .  S
C1010      C1012   1.440       .  S
C1011      N1229   1.158       .  T
C1012      N1016   1.155       .  T
C1013      N1018   1.157       .  T
C1014      N1017   1.157       .  T
N1015      C1225   1.157       .  T
C1023      C1024   1.405       .  A
C1023      C1028   1.395       .  A
C1023      C1037   1.444       .  S
C1024      C1029   1.475       .  S
C1024      C1025   1.406       .  A
C1025      C1026   1.397       .  A
C1025      H1044   1.085       .  S
C1026      C1027   1.404       .  A
C1026      C1038   1.436       .  S
C1027      C1028   1.405       .  A
C1028      H1043   1.076       .  S
C1029      C1030   1.387       .  A
C1029      C1034   1.415       .  A
C1030      C1031   1.380       .  A
C1030      H1045   1.085       .  S
C1031      C1032   1.411       .  A
C1031      C1035   1.432       .  S
C1032      C1033   1.404       .  A
C1033      C1034   1.410       .  A
C1033      H1046   1.084       .  S
C1034      C1036   1.440       .  S
C1035      N1467   1.153   1_655  T
C1036      N1040   1.156       .  T
C1037      N1042   1.157       .  T
C1038      N1041   1.155       .  T
N1039      C1463   1.153       .  T
C1047      C1048   1.403       .  A
C1047      C1052   1.393       .  A
C1047      C1061   1.445       .  S
C1048      C1053   1.475       .  S
C1048      C1049   1.399       .  A
C1049      C1050   1.404       .  A
C1049      H1068   1.085       .  S
C1050      C1051   1.423       .  A
C1050      C1062   1.440       .  S
C1051      C1052   1.414       .  A
C1052      H1067   1.083       .  S
C1053      C1054   1.406       .  A
C1053      C1058   1.401       .  A
C1054      C1055   1.408       .  A
C1054      H1069   1.080       .  S
C1055      C1056   1.413       .  A
C1055      C1059   1.442       .  S
C1056      C1057   1.412       .  A
C1057      C1058   1.386       .  A
C1057      H1070   1.083       .  S
C1058      C1060   1.448       .  S
C1059      N1063   1.157       .  T
C1060      N1064   1.157       .  T
C1061      N1066   1.157       .  T
C1062      N1065   1.157       .  T
C1071      N1076   1.366       .  A
N1072      C1073   1.375       .  A
C1073      N1074   1.360       .  A
C1073      C1112   1.512       .  S
C1075      N1076   1.361       .  A
C1077      N1078   1.360       .  A
C1077      N1082   1.371       .  A
C1077      C1090   1.510       .  S
N1078      C1079   1.369       .  A
C1079      N1080   1.368       .  A
C1079      C1097   1.501       .  S
N1080      C1081   1.371       .  A
C1081      N1082   1.366       .  A
C1081      C1109   1.505       .  S
C1083      C1084   1.518       .  S
C1083      C1089   1.531       .  S
C1083      C1087   1.567       .  S
C1083      C1265   1.538       .  S
C1084      H1091   1.089       .  S
C1084      C1085   1.358       .  D
C1086      C1088   1.520       .  S
C1086      H1092   1.111       .  S
C1087      H1093   1.085       .  S
C1088      C1241   1.477       .  S
C1089      H1094   1.088       .  S
C1089      C1090   1.358       .  D
C1095      C1096   1.524       .  S
C1095      C1101   1.572       .  S
C1095      C1222   1.552       .  S
C1096      H1103   1.088       .  S
C1096      C1097   1.362       .  D
C1098      C1102   1.517       .  S
C1098      H1104   1.105       .  S
C1099      H1105   1.089       .  S
C1099      C1100   1.355       .  D
C1101      H1106   1.085       .  S
C1102      C1198   1.494       .  S
C1107      C1536   1.512   1_545  S
C1107      C1113   1.577       .  S
C1107      C1111   1.516       .  S
C1107      C1150   1.528       .  S
C1108      C1535   1.514       .  S
C1108      H1115   1.089       .  S
C1108      C1109   1.350       .  D
C1109      C1324   1.575       .  S
C1110      C1323   1.574   1_545  S
C1110      C1114   1.527       .  S
C1110      H1116   1.110   1_545  S
C1111      H1117   1.090       .  S
C1111      C1112   1.352       .  D
C1113      H1118   1.081       .  S
C1114      C1169   1.504       .  S
O1119     Cr1137   2.013       .  S
O1119      C1127   1.266       .  A
O1120      C1549   1.254       .  A
C1121      O1548   1.249   1_545  A
C1121      O1122   1.269       .  A
C1121      C1145   1.481       .  S
O1122     Cr1138   2.020       .  S
O1123     Cr1138   1.959       .  S
O1123      C1124   1.259       .  A
C1124      C1217   1.493       .  S
O1125     Cr1567   2.027   1_545  S
O1126     Cr1139   1.946       .  S
O1126      C1127   1.253       .  A
C1127      C1270   1.490       .  S
O1128     Cr1137   1.932       .  S
O1128      C1136   1.251       .  A
O1129      C1558   1.272       .  A
C1130      O1557   1.270       .  A
C1130      O1131   1.261       .  A
C1130      C1174   1.503       .  S
O1131     Cr1138   1.978       .  S
O1132     Cr1138   2.008       .  S
O1132      C1133   1.265       .  A
C1133      C1193   1.488       .  S
O1134     Cr1567   1.951       .  S
O1135     Cr1139   2.034       .  S
O1135      C1136   1.272       .  A
C1136      C1246   1.468       .  S
Cr1137     O1568   1.775       .  S
Cr1139     O1553   2.032       .  S
Cr1139     O1562   1.958       .  S
Cr1139     O1568   1.773       .  S
O1140     Cr1565   1.782       .  S
O1140     Cr1567   1.776   1_455  S
C1141      C1142   1.408       .  A
C1141      C1146   1.401       .  A
C1141      C1155   1.443       .  S
C1142      C1147   1.472       .  S
C1142      C1571   1.396   1_545  A
C1143      C1570   1.398       .  A
C1143      C1144   1.395       .  A
C1143      H1162   1.085       .  S
C1144      C1573   1.419       .  A
C1144      C1156   1.445       .  S
C1145      C1572   1.422   1_545  A
C1145      C1146   1.406       .  A
C1146      H1161   1.084       .  S
C1147      C1576   1.390       .  A
C1147      C1152   1.409       .  A
C1148      C1575   1.391       .  A
C1148      C1149   1.393       .  A
C1148      H1163   1.086       .  S
C1149      C1578   1.429       .  A
C1149      C1153   1.446       .  S
C1150      C1577   1.430       .  A
C1150      C1151   1.408       .  A
C1151      C1152   1.406       .  A
C1151      H1164   1.081       .  S
C1152      C1154   1.442       .  S
C1153      N1157   1.157       .  T
C1154      N1158   1.157       .  T
C1155      N1160   1.157       .  T
C1165      C1166   1.407       .  A
C1165      C1170   1.392       .  A
C1165      C1179   1.447       .  S
C1166      C1171   1.496       .  S
C1166      C1595   1.411   1_545  A
C1167      C1594   1.410       .  A
C1167      C1168   1.412       .  A
C1167      H1186   1.084       .  S
C1168      C1597   1.412       .  A
C1168      C1180   1.440       .  S
C1169      C1596   1.413   1_545  A
C1169      C1170   1.409       .  A
C1170      H1185   1.080       .  S
C1171      C1600   1.403   1_545  A
C1171      C1176   1.409       .  A
C1172      C1599   1.403       .  A
C1172      C1173   1.408       .  A
C1172      H1187   1.085       .  S
C1173      C1602   1.420       .  A
C1173      C1177   1.443       .  S
C1174      C1601   1.421   1_545  A
C1174      C1175   1.412       .  A
C1175      C1176   1.403       .  A
C1175      H1188   1.084       .  S
C1176      C1178   1.444       .  S
C1177      N1181   1.157       .  T
C1178      N1182   1.157       .  T
C1179      N1184   1.157       .  T
C1189      C1190   1.419       .  A
C1189      C1194   1.401       .  A
C1189      C1203   1.443       .  S
C1190      C1195   1.499       .  S
C1191      C1192   1.402       .  A
C1191      H1210   1.084       .  S
C1192      C1204   1.444       .  S
C1193      C1194   1.404       .  A
C1194      H1209   1.085       .  S
C1195      C1196   1.397       .  A
C1196      C1197   1.397       .  A
C1196      H1211   1.085       .  S
C1197      C1198   1.423       .  A
C1197      C1201   1.441       .  S
C1199      C1200   1.410       .  A
C1199      H1212   1.084       .  S
C1200      C1202   1.443       .  S
C1201      N1205   1.157       .  T
C1202      N1206   1.157   1_545  T
C1203      N1208   1.157       .  T
C1204      N1207   1.157       .  T
C1213      C1214   1.413       .  A
C1213      C1218   1.402       .  A
C1213      C1227   1.444       .  S
C1214      C1219   1.505       .  S
C1215      C1216   1.408       .  A
C1215      H1234   1.085       .  S
C1216      C1228   1.443       .  S
C1217      C1218   1.408       .  A
C1218      H1233   1.085       .  S
C1219      C1220   1.412       .  A
C1220      C1221   1.412       .  A
C1220      H1235   1.084       .  S
C1221      C1222   1.418       .  A
C1221      C1225   1.443       .  S
C1223      C1224   1.396       .  A
C1223      H1236   1.085       .  S
C1224      C1226   1.445       .  S
C1226      N1230   1.157       .  T
C1227      N1232   1.157       .  T
C1228      N1231   1.157   1_545  T
C1237      C1238   1.403       .  A
C1237      C1242   1.392       .  A
C1237      C1251   1.446       .  S
C1238      C1243   1.470       .  S
C1238      C1239   1.404       .  A
C1239      C1240   1.401       .  A
C1239      H1258   1.085       .  S
C1240      C1241   1.408       .  A
C1240      C1252   1.441       .  S
C1241      C1242   1.407       .  A
C1242      H1257   1.080       .  S
C1243      C1244   1.387       .  A
C1243      C1248   1.412       .  A
C1244      C1245   1.385       .  A
C1244      H1259   1.086       .  S
C1245      C1246   1.412       .  A
C1245      C1249   1.434       .  S
C1246      C1247   1.404       .  A
C1247      C1248   1.408       .  A
C1247      H1260   1.084       .  S
C1248      C1250   1.443       .  S
C1249      N1681   1.153       .  T
C1250      N1254   1.157       .  T
C1251      N1256   1.157       .  T
C1252      N1255   1.157       .  T
N1253      C1677   1.152       .  T
C1261      C1262   1.401       .  A
C1261      C1266   1.392       .  A
C1261      C1275   1.445       .  S
C1262      C1267   1.478       .  S
C1262      C1263   1.401       .  A
C1263      C1264   1.406       .  A
C1263      H1282   1.085       .  S
C1264      C1265   1.422       .  A
C1264      C1276   1.443       .  S
C1265      C1266   1.416       .  A
C1266      H1281   1.081       .  S
C1267      C1268   1.404       .  A
C1267      C1272   1.403       .  A
C1268      C1269   1.407       .  A
C1268      H1283   1.084       .  S
C1269      C1270   1.416       .  A
C1269      C1273   1.442       .  S
C1270      C1271   1.411       .  A
C1271      C1272   1.391       .  A
C1271      H1284   1.084       .  S
C1272      C1274   1.444       .  S
C1273      N1277   1.157       .  T
C1274      N1278   1.156       .  T
C1275      N1280   1.157       .  T
C1276      N1279   1.157       .  T
C1285      N1500   1.362       .  A
C1285      N1290   1.367       .  A
C1285      C1513   1.500       .  S
N1286      C1499   1.365       .  A
N1286      C1287   1.373       .  A
C1287      N1288   1.357       .  A
C1287      C1326   1.502   1_556  S
N1288      C1503   1.367       .  A
C1289      N1502   1.374       .  A
C1289      N1290   1.358       .  A
C1289      C1528   1.504       .  S
C1291      N1292   1.360       .  A
C1291      N1296   1.369       .  A
C1291      C1304   1.507       .  S
N1292      C1293   1.369       .  A
C1293      N1294   1.367       .  A
C1293      C1311   1.512       .  S
N1294      C1295   1.374       .  A
C1295      N1296   1.367       .  A
C1295      C1323   1.505       .  S
C1297      C1298   1.521       .  S
C1297      C1303   1.533       .  S
C1297      C1301   1.571       .  S
C1297      C1479   1.547       .  S
C1298      H1305   1.088       .  S
C1298      C1299   1.360       .  D
C1299      C1499   1.507   1_554  S
C1299      C1514   1.566   1_554  S
C1300      C1513   1.559       .  S
C1300      C1518   1.562       .  S
C1300      C1302   1.520       .  S
C1300      H1306   1.111       .  S
C1301      H1307   1.084       .  S
C1301      C1516   1.381   1_554  D
C1302      C1455   1.482       .  S
C1302      C1515   1.380       .  D
C1303      H1308   1.087       .  S
C1303      C1304   1.360   1_554  D
C1304      C1514   1.565       .  S
C1309      C1310   1.534       .  S
C1309      C1315   1.574   1_554  S
C1309      C1436   1.541       .  S
C1310      H1317   1.089       .  S
C1310      C1311   1.362   1_554  D
C1311      C1526   1.570       .  S
C1312      C1525   1.562       .  S
C1312      C1316   1.519       .  S
C1312      H1318   1.108       .  S
C1313      H1319   1.089       .  S
C1313      C1314   1.359       .  D
C1314      C1503   1.505   1_554  S
C1315      H1320   1.082   1_556  S
C1315      C1530   1.389       .  D
C1316      C1412   1.491       .  S
C1316      C1529   1.385       .  D
C1321      C1327   1.575       .  S
C1321      C1325   1.516       .  S
C1321      C1364   1.530       .  S
C1322      H1329   1.090       .  S
C1322      C1323   1.350   1_554  D
C1324      C1328   1.531       .  S
C1324      C1540   1.577       .  S
C1324      H1330   1.110       .  S
C1325      H1331   1.090       .  S
C1325      C1326   1.352       .  D
C1326      C1538   1.566   1_554  S
C1327      H1332   1.082       .  S
C1327      C1542   1.387   1_554  D
C1328      C1383   1.500       .  S
C1328      C1541   1.382       .  D
O1333     Cr1351   2.015       .  S
O1333      C1341   1.266       .  A
C1335      O1336   1.268       .  A
C1335      C1359   1.482       .  S
O1336     Cr1352   2.021       .  S
O1337     Cr1352   1.953       .  S
O1337      C1338   1.260       .  A
C1338      C1431   1.499       .  S
O1340     Cr1353   1.959   1_565  S
O1340      C1341   1.255       .  A
C1341      C1484   1.491       .  S
O1342     Cr1351   1.932       .  S
O1342      C1350   1.252       .  A
C1344      O1345   1.264       .  A
C1344      C1388   1.503       .  S
O1345     Cr1352   1.984       .  S
O1346     Cr1352   2.010       .  S
O1346      C1347   1.264       .  A
C1347      C1407   1.480       .  S
O1349     Cr1353   2.038   1_565  S
O1349      C1350   1.274       .  A
C1350      C1460   1.469       .  S
C1355      C1356   1.409       .  A
C1355      C1360   1.403       .  A
C1355      C1369   1.444       .  S
C1356      C1361   1.473       .  S
C1357      C1358   1.399       .  A
C1357      H1376   1.085       .  S
C1358      C1370   1.444       .  S
C1359      C1360   1.407       .  A
C1360      H1375   1.084       .  S
C1361      C1366   1.409       .  A
C1362      C1363   1.393       .  A
C1362      H1377   1.086       .  S
C1363      C1367   1.447       .  S
C1364      C1365   1.408       .  A
C1365      C1366   1.404       .  A
C1365      H1378   1.080       .  S
C1366      C1368   1.443       .  S
C1367      N1371   1.158       .  T
C1368      N1372   1.157       .  T
C1369      N1374   1.157       .  T
C1379      C1380   1.407       .  A
C1379      C1384   1.394       .  A
C1379      C1393   1.446       .  S
C1380      C1385   1.492       .  S
C1381      C1382   1.412       .  A
C1381      H1400   1.085       .  S
C1382      C1394   1.440       .  S
C1383      C1384   1.407       .  A
C1384      H1399   1.081       .  S
C1385      C1390   1.408       .  A
C1386      C1387   1.405       .  A
C1386      H1401   1.085       .  S
C1387      C1391   1.443       .  S
C1388      C1389   1.412       .  A
C1389      C1390   1.404       .  A
C1389      H1402   1.084       .  S
C1390      C1392   1.444       .  S
C1391      N1395   1.157       .  T
C1392      N1396   1.157       .  T
C1393      N1398   1.157       .  T
C1394      N1611   1.157       .  T
N1397      C1608   1.157       .  T
C1403      C1404   1.422       .  A
C1403      C1408   1.395       .  A
C1403      C1417   1.442       .  S
C1404      C1409   1.500       .  S
C1405      C1406   1.398       .  A
C1405      H1424   1.084       .  S
C1406      C1418   1.445       .  S
C1407      C1408   1.400       .  A
C1408      H1423   1.085       .  S
C1409      C1410   1.395       .  A
C1410      C1411   1.390       .  A
C1410      H1425   1.084       .  S
C1411      C1412   1.418       .  A
C1411      C1415   1.440       .  S
C1413      C1414   1.407       .  A
C1413      H1426   1.085       .  S
C1414      C1416   1.442       .  S
C1415      N1419   1.157       .  T
C1416      N1420   1.156       .  T
C1417      N1422   1.156       .  T
C1418      N1421   1.157       .  T
C1427      C1428   1.403       .  A
C1427      C1432   1.395       .  A
C1427      C1441   1.445       .  S
C1428      C1433   1.485       .  S
C1429      C1430   1.402       .  A
C1429      H1448   1.085       .  S
C1430      C1442   1.443       .  S
C1431      C1432   1.413       .  A
C1432      H1447   1.084       .  S
C1433      C1434   1.403       .  A
C1434      C1435   1.408       .  A
C1434      H1449   1.083       .  S
C1435      C1436   1.422       .  A
C1435      C1439   1.442       .  S
C1437      C1438   1.391       .  A
C1437      H1450   1.085       .  S
C1438      C1440   1.446       .  S
C1439      N1657   1.158       .  T
C1440      N1444   1.157       .  T
C1441      N1446   1.157       .  T
C1442      N1445   1.157       .  T
N1443      C1653   1.158       .  T
C1451      C1452   1.405       .  A
C1451      C1456   1.392       .  A
C1451      C1465   1.446       .  S
C1452      C1457   1.476       .  S
C1452      C1453   1.406       .  A
C1453      C1454   1.403       .  A
C1453      H1472   1.085       .  S
C1454      C1455   1.408       .  A
C1454      C1466   1.438       .  S
C1455      C1456   1.407       .  A
C1456      H1471   1.081       .  S
C1457      C1458   1.388       .  A
C1457      C1462   1.413       .  A
C1458      C1459   1.387       .  A
C1458      H1473   1.084       .  S
C1459      C1460   1.412       .  A
C1459      C1463   1.436   1_565  S
C1460      C1461   1.403       .  A
C1461      C1462   1.407       .  A
C1461      H1474   1.084       .  S
C1462      C1464   1.442       .  S
C1464      N1468   1.157       .  T
C1465      N1470   1.157       .  T
C1466      N1469   1.156       .  T
C1475      C1476   1.403       .  A
C1475      C1480   1.400       .  A
C1475      C1489   1.445       .  S
C1476      C1481   1.486       .  S
C1476      C1477   1.401       .  A
C1477      C1478   1.406       .  A
C1477      H1496   1.085       .  S
C1478      C1479   1.422       .  A
C1478      C1490   1.440       .  S
C1479      C1480   1.419       .  A
C1480      H1495   1.081       .  S
C1481      C1482   1.408       .  A
C1481      C1486   1.404       .  A
C1482      C1483   1.410       .  A
C1482      H1497   1.084       .  S
C1483      C1484   1.413       .  A
C1483      C1487   1.442       .  S
C1484      C1485   1.408       .  A
C1485      C1486   1.394       .  A
C1485      H1498   1.081       .  S
C1486      C1488   1.444       .  S
C1487      N1491   1.157       .  T
C1488      N1492   1.157       .  T
C1489      N1494   1.157       .  T
C1490      N1493   1.156       .  T
C1499      N1504   1.371       .  A
N1500      C1501   1.370       .  A
C1501      N1502   1.368       .  A
C1501      C1540   1.510       .  S
C1503      N1504   1.363       .  A
C1505      N1506   1.356       .  A
C1505      N1510   1.372       .  A
C1505      C1518   1.495       .  S
N1506      C1507   1.364       .  A
C1507      N1508   1.361       .  A
C1507      C1525   1.498       .  S
N1508      C1509   1.373       .  A
C1509      N1510   1.367       .  A
C1509      C1537   1.507       .  S
C1511      C1512   1.521       .  S
C1511      C1517   1.530       .  S
C1511      C1515   1.570       .  S
C1511      C1693   1.534       .  S
C1512      H1519   1.090       .  S
C1512      C1513   1.358       .  D
C1514      C1516   1.518       .  S
C1514      H1520   1.111       .  S
C1515      H1521   1.084       .  S
C1516      C1669   1.483       .  S
C1517      H1522   1.087       .  S
C1517      C1518   1.357       .  D
C1523      C1524   1.522       .  S
C1523      C1529   1.577       .  S
C1523      C1650   1.547       .  S
C1524      H1531   1.089       .  S
C1524      C1525   1.358       .  D
C1526      C1530   1.522       .  S
C1526      H1532   1.103       .  S
C1527      H1533   1.089       .  S
C1527      C1528   1.351       .  D
C1529      H1534   1.077       .  S
C1530      C1626   1.500       .  S
C1535      C1541   1.571       .  S
C1535      C1539   1.523       .  S
C1535      C1578   1.531       .  S
C1536      H1543   1.089       .  S
C1536      C1537   1.350       .  D
C1538      C1542   1.527       .  S
C1538      H1544   1.110       .  S
C1539      H1545   1.089       .  S
C1539      C1540   1.359       .  D
C1541      H1546   1.083       .  S
C1542      C1597   1.497       .  S
O1547     Cr1565   2.022   1_655  S
O1547      C1555   1.268       .  A
C1549      O1550   1.264       .  A
C1549      C1573   1.484       .  S
O1550     Cr1566   2.004       .  S
O1551     Cr1566   1.960       .  S
O1551      C1552   1.257       .  A
C1552      C1645   1.496       .  S
O1554     Cr1567   1.934       .  S
O1554      C1555   1.252       .  A
C1555      C1698   1.486       .  S
O1556     Cr1565   1.973       .  S
O1556      C1564   1.257   1_455  A
C1558      O1559   1.260       .  A
C1558      C1602   1.494       .  S
O1559     Cr1566   1.949       .  S
O1560     Cr1566   2.021       .  S
O1560      C1561   1.270       .  A
C1561      C1621   1.486       .  S
O1563     Cr1567   2.020       .  S
O1563      C1564   1.268       .  A
C1564      C1674   1.483       .  S
C1569      C1570   1.406       .  A
C1569      C1574   1.399       .  A
C1569      C1583   1.444       .  S
C1570      C1575   1.474       .  S
C1571      C1572   1.393       .  A
C1571      H1590   1.086       .  S
C1572      C1584   1.446       .  S
C1573      C1574   1.409       .  A
C1574      H1589   1.084       .  S
C1575      C1580   1.409       .  A
C1576      C1577   1.387       .  A
C1576      H1591   1.086       .  S
C1577      C1581   1.449       .  S
C1578      C1579   1.409       .  A
C1579      C1580   1.403       .  A
C1579      H1592   1.080       .  S
C1580      C1582   1.443       .  S
C1581      N1585   1.158       .  T
C1582      N1586   1.156       .  T
C1583      N1588   1.157       .  T
C1593      C1594   1.407       .  A
C1593      C1598   1.389       .  A
C1593      C1607   1.446       .  S
C1594      C1599   1.489       .  S
C1595      C1596   1.416       .  A
C1595      H1614   1.084       .  S
C1596      C1608   1.441       .  S
C1597      C1598   1.407       .  A
C1598      H1613   1.083       .  S
C1599      C1604   1.407       .  A
C1600      C1601   1.408       .  A
C1600      H1615   1.085       .  S
C1601      C1605   1.443       .  S
C1602      C1603   1.411       .  A
C1603      C1604   1.396       .  A
C1603      H1616   1.085       .  S
C1604      C1606   1.444       .  S
C1605      N1609   1.157       .  T
C1606      N1610   1.156       .  T
C1607      N1612   1.157       .  T
C1617      C1618   1.418       .  A
C1617      C1622   1.398       .  A
C1617      C1631   1.444       .  S
C1618      C1623   1.491       .  S
C1619      C1620   1.402       .  A
C1619      H1638   1.083       .  S
C1620      C1632   1.444       .  S
C1621      C1622   1.403       .  A
C1622      H1637   1.085       .  S
C1623      C1624   1.392       .  A
C1624      C1625   1.389       .  A
C1624      H1639   1.085       .  S
C1625      C1626   1.427       .  A
C1625      C1629   1.443       .  S
C1627      C1628   1.408       .  A
C1627      H1640   1.085       .  S
C1628      C1630   1.441       .  S
C1629      N1633   1.158       .  T
C1630      N1634   1.157       .  T
C1631      N1636   1.157       .  T
C1632      N1635   1.157       .  T
C1641      C1642   1.408       .  A
C1641      C1646   1.399       .  A
C1641      C1655   1.445       .  S
C1642      C1647   1.490       .  S
C1643      C1644   1.407       .  A
C1643      H1662   1.085       .  S
C1644      C1656   1.443       .  S
C1645      C1646   1.411       .  A
C1646      H1661   1.085       .  S
C1647      C1648   1.405       .  A
C1648      C1649   1.410       .  A
C1648      H1663   1.083       .  S
C1649      C1650   1.423       .  A
C1649      C1653   1.440       .  S
C1651      C1652   1.391   1_455  A
C1651      H1664   1.084       .  S
C1652      C1654   1.444   1_655  S
C1654      N1658   1.157       .  T
C1655      N1660   1.157       .  T
C1656      N1659   1.157       .  T
C1665      C1666   1.409       .  A
C1665      C1670   1.399       .  A
C1665      C1679   1.444       .  S
C1666      C1671   1.488       .  S
C1666      C1667   1.407       .  A
C1667      C1668   1.402       .  A
C1667      H1686   1.085       .  S
C1668      C1669   1.408       .  A
C1668      C1680   1.439       .  S
C1669      C1670   1.407       .  A
C1670      H1685   1.082       .  S
C1671      C1672   1.392       .  A
C1671      C1676   1.416       .  A
C1672      C1673   1.390       .  A
C1672      H1687   1.086       .  S
C1673      C1674   1.413       .  A
C1673      C1677   1.431   1_655  S
C1674      C1675   1.404       .  A
C1675      C1676   1.410       .  A
C1675      H1688   1.084       .  S
C1676      C1678   1.440       .  S
C1678      N1682   1.156       .  T
C1679      N1684   1.157       .  T
C1680      N1683   1.156       .  T
C1689      C1690   1.401       .  A
C1689      C1694   1.393       .  A
C1689      C1703   1.445       .  S
C1690      C1695   1.476       .  S
C1690      C1691   1.402       .  A
C1691      C1692   1.405       .  A
C1691      H1710   1.085       .  S
C1692      C1693   1.423       .  A
C1692      C1704   1.441       .  S
C1693      C1694   1.415       .  A
C1694      H1709   1.083       .  S
C1695      C1696   1.408       .  A
C1695      C1700   1.402       .  A
C1696      C1697   1.410       .  A
C1696      H1711   1.085       .  S
C1697      C1698   1.414       .  A
C1697      C1701   1.442       .  S
C1698      C1699   1.409       .  A
C1699      C1700   1.385       .  A
C1699      H1712   1.083       .  S
C1700      C1702   1.447       .  S
C1701      N1705   1.157       .  T
C1702      N1706   1.157       .  T
C1703      N1708   1.157       .  T
C1704      N1707   1.157       .  T
