geometry optimzed in LAMMPS
_audit_creation_date              2020-11-30 
_audit_creation_method            'lammps2cif' 
_symmetry_space_group_name_H-M    'P1' 
_symmetry_Int_Tables_number       1 
_symmetry_cell_setting            triclinic 
loop_ 
_symmetry_equiv_pos_as_xyz 
  x,y,z 
_cell_length_a                    31.017904643990622 
_cell_length_b                    30.920024964025504 
_cell_length_c                    56.87772738117177 
_cell_angle_alpha                 91.33670711696034 
_cell_angle_beta                  94.7918153534924 
_cell_angle_gamma                 120.15247417720785 
loop_ 
_atom_site_label 
_atom_site_type_symbol 
_atom_site_fract_x 
_atom_site_fract_y 
_atom_site_fract_z 
_atom_site_charge 
Zr1        Zr  0.33947006  0.21271916  0.37824565     2.17510
O2          O  0.37333283  0.28951847  0.40384286    -0.51410
O3          O  0.30636399  0.14941783  0.40588300    -0.74620
O4          O  0.27762596  0.21580687  0.39910031    -0.81400
O5          O  0.47214188  0.24487054  0.37593453    -0.83150
O6          O  0.21091328  0.19685790  0.37223323    -0.78770
O7          O  0.41082230  0.21815134  0.40010350    -0.90410
O8          O  0.26840508  0.07319120  0.38563709    -0.76370
O9          O  0.26272496  0.14527670  0.36027588    -0.85860
O10         O  0.36122894  0.15403303  0.36402757    -0.85550
O11         O  0.31052180  0.25101038  0.35000524    -0.72310
O12         O  0.40315660  0.25930292  0.35314270    -0.84440
Zr13       Zr  0.31505696  0.16464583  0.28989829     2.26420
Zr14       Zr  0.23266390  0.18234578  0.33196597     2.06270
Zr15       Zr  0.42313518  0.19915079  0.33803804     2.10050
Zr16       Zr  0.28471047  0.08726359  0.34518647     1.78760
O17         O  0.51290292  0.24873735  0.33517181    -0.93250
O18         O  0.19767306  0.01982933  0.34348848    -0.41060
O19         O  0.34665100  0.12950952  0.31877866    -0.77690
O20         O  0.25193309  0.12089861  0.31669556    -0.96370
O21         O  0.29474363  0.22427689  0.30478768    -0.89680
O22         O  0.39239904  0.23341495  0.30795073    -0.92520
C23         C  0.28050603  0.10146018  0.40463489     1.01230
C24         C  0.45683961  0.24200018  0.39650005     1.14160
C25         C  0.23360549  0.20830219  0.39369417     1.04940
O26         O  0.14816526  0.11038129  0.33051929    -0.94680
O27         O  0.19917777  0.17441894  0.28986742    -0.90420
O28         O  0.22648929  0.12456789  0.27735318    -0.83560
C29         C  0.20394921  0.14877995  0.27320417     1.11580
O30         O  0.39952389  0.36290137  0.35195719    -0.96650
Zr31       Zr  0.37197559  0.29245806  0.32281887     1.88940
O32         O  0.34902572  0.23118540  0.26245689    -0.73300
O33         O  0.20043989  0.23964697  0.32876911    -0.52560
O34         O  0.32866342  0.33737382  0.31129711    -0.97240
O35         O  0.46076915  0.35391678  0.32254197    -0.54460
O36         O  0.38346264  0.30838284  0.28130904    -0.73810
C37         C  0.37146278  0.27930388  0.26246724     0.98530
O38         O  0.29041803  0.11311552  0.25276569    -0.62640
O39         O  0.43823313  0.13174564  0.34886389    -0.57440
O40         O  0.36860683  0.13063772  0.28309995    -0.94120
O41         O  0.44582515  0.18830391  0.29906181    -0.92550
O42         O  0.32568468  0.04143442  0.35895869    -0.92900
O43         O  0.26307941  0.01966710  0.31535526    -0.91690
C44         C  0.41573026  0.15715289  0.28202186     1.17370
H45         H  0.37377870  0.14099195  0.37638503     0.33320
H46         H  0.22107053  0.09062098  0.31085099     0.44170
H47         H  0.41657447  0.24861615  0.29671422     0.37690
H48         H  0.30459440  0.27513318  0.35800311     0.34170
H49         H  0.19880976  0.99415542  0.35318050     0.25960
H50         H  0.16694379  0.22141144  0.33450268     0.31900
H51         H  0.35325796  0.36663480  0.30347514     0.37810
H52         H  0.29832702  0.00970335  0.36396228     0.32270
H53         H  0.45573228  0.12790640  0.33589444     0.31140
H54         H  0.52606231  0.22654640  0.33987363     0.32830
H55         H  0.46172373  0.37809853  0.31118800     0.31790
H56         H  0.26176229  0.03385278  0.30006093     0.35790
H57         H  0.32000889  0.13062816  0.24395615     0.28520
H58         H  0.36245034  0.27882403  0.41962373     0.32760
H59         H  0.41097725  0.39290732  0.34280483     0.35610
H60         H  0.46418835  0.14644373  0.36265725     0.28220
H61         H  0.28834355  0.08110842  0.25662676     0.41090
H62         H  0.14703531  0.09678933  0.34619164     0.31150
H63         H  0.18141724  0.03375933  0.35292394     0.38760
H64         H  0.47486348  0.33573749  0.31458286     0.30610
H65         H  0.22128671  0.26718876  0.34112637     0.30680
H66         H  0.35470792  0.30619914  0.39816170     0.30940
C67         C  0.21429221  0.36548234  0.16866629     0.02200
C68         C  0.21521922  0.41208598  0.17018884     0.02200
C69         C  0.16921392  0.41254219  0.16997741     0.02200
C70         C  0.12239837  0.36599440  0.16881239     0.02200
C71         C  0.12271986  0.31981750  0.17004386     0.02200
C72         C  0.16838649  0.31978595  0.16933428     0.02200
C73         C  0.16703856  0.10175737  0.17421726     0.00480
C74         C  0.16987927  0.13260579  0.15634751     0.00480
C75         C  0.42758625  0.35644304  0.17074048     0.00480
C76         C  0.39778085  0.36370454  0.15344983     0.00480
C77         C  0.41656742  0.09484832  0.18822879     0.00480
C78         C  0.44968758  0.11773799  0.17159836     0.00480
C79         C  0.47932368  0.24296675  0.49224195     0.00480
C80         C  0.47717670  0.27384144  0.50951086     0.00480
C81         C  0.24015210  0.00819487  0.49071817     0.00480
C82         C  0.20723743  0.49944927  0.50711966     0.00480
C83         C  0.01997070  0.00705967  0.49862266     0.02200
C84         C  0.47421107  0.46010904  0.49777739     0.02200
C85         C  0.42748929  0.45895304  0.49710143     0.02200
C86         C  0.42700818  0.00481032  0.49829541     0.02200
C87         C  0.47280521  0.05170522  0.49961233     0.02200
C88         C  0.01920661  0.05271922  0.49939915     0.02200
C89         C  0.23793305  0.26600005  0.48983427     0.00480
C90         C  0.21161455  0.24011588  0.50836044     0.00480
Zr91       Zr  0.44950794  0.03289732  0.95882937     2.17510
O92         O  0.40523496  0.06961894  0.93662805    -0.51410
O93         O  0.97287184  0.00469323  0.92373580    -0.74620
O94         O  0.00549041  0.11863702  0.95217559    -0.81400
O95         O  0.33074197  0.40448750  0.95689439    -0.83150
O96         O  0.08213727  0.13162589  0.96269685    -0.78770
O97         O  0.35921277  0.98505609  0.95527185    -0.90410
O98         O  0.01936703  0.46956594  0.93549846    -0.76370
O99         O  0.02909938  0.03973498  0.96925185    -0.85860
O100        O  0.43344186  0.44992544  0.96575076    -0.85550
O101        O  0.98914266  0.09310362  0.99274060    -0.72310
O102        O  0.39514374  0.00314723  0.98947156    -0.84440
Zr103      Zr  0.99492020  0.98692605  0.03970660     2.26420
Zr104      Zr  0.06894178  0.09901217  0.00300347     2.06270
Zr105      Zr  0.37789756  0.41953549  0.99668786     2.10050
Zr106      Zr  0.01304964  0.95792347  0.97650944     1.78760
O107        O  0.29201674  0.39600307  0.00208578    -0.93250
O108        O  0.10113104  0.98952418  0.97178693    -0.41060
O109        O  0.45794228  0.42693458  0.00658041    -0.77690
O110        O  0.05226972  0.01602802  0.01036705    -0.96370
O111        O  0.01359846  0.07002229  0.03321944    -0.89680
O112        O  0.41562786  0.98028848  0.02998213    -0.92520
C113        C  0.00065900  0.98614114  0.91978494     1.01230
C114        C  0.33545902  0.44131346  0.94513727     1.14160
C115        C  0.04995260  0.13422341  0.94767973     1.04940
O116        O  0.15643188  0.13166619  0.99688972    -0.94680
O117        O  0.12195868  0.10910947  0.04092566    -0.90420
O118        O  0.07186941  0.04283742  0.06103282    -0.83560
C119        C  0.11303088  0.08265960  0.05918956     1.11580
O120        O  0.39565513  0.10325908  0.00041753    -0.96650
Zr121      Zr  0.43448847  0.06283764  0.02268760     1.88940
O122        O  0.47257319  0.01041866  0.07614813    -0.73300
O123        O  0.08891709  0.18371942  0.01510365    -0.52560
O124        O  0.47935962  0.15030806  0.03828468    -0.97240
O125        O  0.35215110  0.03944806  0.03441811    -0.54460
O126        O  0.44204816  0.06061929  0.06465846    -0.73810
C127        C  0.45489694  0.03927017  0.08042272     0.98530
O128        O  0.04065837  0.44580072  0.05441650    -0.62640
O129        O  0.35471581  0.33287655  0.98716221    -0.57440
O130        O  0.44506040  0.40149406  0.04832055    -0.94120
O131        O  0.36715720  0.38458034  0.03687626    -0.92550
O132        O  0.97290483  0.37542621  0.95534197    -0.92900
O133        O  0.04096487  0.40481800  0.99530904    -0.91690
C134        C  0.39991112  0.38336973  0.05219559     1.17370
H135        H  0.41848034  0.42804697  0.95142115     0.33320
H136        H  0.08312368  0.01720511  0.01598472     0.44170
H137        H  0.39526417  0.97014631  0.04294123     0.37690
H138        H  0.99375307  0.12597569  0.99047124     0.34170
H139        H  0.10066750  0.96707937  0.95893779     0.25960
H140        H  0.12254588  0.19915666  0.02417334     0.31900
H141        H  0.45845795  0.15221487  0.05004972     0.37810
H142        H  0.99965541  0.37516134  0.94708416     0.32270
H143        H  0.31942277  0.31644978  0.97998283     0.31140
H144        H  0.27445922  0.35914808  0.00288166     0.32830
H145        H  0.35869354  0.06568429  0.04681729     0.31790
H146        H  0.06987744  0.42766967  0.00688337     0.35790
H147        H  0.02604219  0.41331602  0.04496594     0.28520
H148        H  0.42784470  0.10622379  0.93648283     0.32760
H149        H  0.39413770  0.12667665  0.01203311     0.35610
H150        H  0.37391498  0.33453827  0.97381303     0.28220
H151        H  0.07418319  0.96521143  0.04887773     0.41090
H152        H  0.15938056  0.10145182  0.99461851     0.31150
H153        H  0.11243434  0.02197098  0.96471123     0.38760
H154        H  0.34197945  0.00884385  0.04298915     0.30610
H155        H  0.09475736  0.20110033  0.00029047     0.30680
H156        H  0.37952603  0.06763647  0.94646895     0.30940
Zr157      Zr  0.15633023  0.36617657  0.71050343     2.17510
O158        O  0.18771223  0.41282572  0.74907700    -0.51410
O159        O  0.12934442  0.30687890  0.74045992    -0.74620
O160        O  0.11060053  0.40596571  0.72155177    -0.81400
O161        O  0.26630892  0.35057174  0.71046283    -0.83150
O162        O  0.03196447  0.35723588  0.70334566    -0.78770
O163        O  0.24608267  0.40853204  0.71830931    -0.90410
O164        O  0.08466641  0.22753416  0.72355259    -0.76370
O165        O  0.07419127  0.30178117  0.69512133    -0.85860
O166        O  0.16601570  0.29781848  0.69703933    -0.85550
O167        O  0.12996695  0.40445800  0.68058953    -0.72310
O168        O  0.21903429  0.39831135  0.68348969    -0.84440
Zr169      Zr  0.12029257  0.30652241  0.62249109     2.26420
Zr170      Zr  0.04770305  0.33799161  0.66432893     2.06270
Zr171      Zr  0.22701923  0.32896124  0.66854820     2.10050
Zr172      Zr  0.08436302  0.23489736  0.68100560     1.78760
O173        O  0.31611072  0.38680255  0.66707781    -0.93250
O174        O  0.99604018  0.18625369  0.68717766    -0.41060
O175        O  0.14386807  0.26674412  0.65246490    -0.77690
O176        O  0.05776577  0.26995075  0.64973837    -0.96370
O177        O  0.11116927  0.37307915  0.63779059    -0.89680
O178        O  0.20251917  0.36861313  0.63934760    -0.92520
C179        C  0.10377412  0.25936317  0.74166852     1.01230
C180        C  0.26654728  0.38345933  0.72494278     1.14160
C181        C  0.06321309  0.38609111  0.72072644     1.04940
O182        O  0.45905985  0.28375101  0.66849980    -0.94680
O183        O  0.99666155  0.30553986  0.62564511    -0.90420
O184        O  0.07139007  0.34579936  0.61555905    -0.83560
C185        C  0.02506178  0.31816843  0.60920224     1.11580
O186        O  0.22724705  0.50709579  0.68301445    -0.96650
Zr187      Zr  0.19240863  0.43541843  0.65388339     1.88940
O188        O  0.16552881  0.36393917  0.59314504    -0.73300
O189        O  0.03388573  0.40703465  0.65538320    -0.52560
O190        O  0.15811529  0.48685137  0.63952541    -0.97240
O191        O  0.28112722  0.49418115  0.65175121    -0.54460
O192        O  0.20122705  0.44125854  0.61249353    -0.73810
C193        C  0.19076804  0.41224936  0.59390482     0.98530
O194        O  0.05568847  0.23732870  0.59543474    -0.62640
O195        O  0.24146485  0.25910426  0.67330822    -0.57440
O196        O  0.16016099  0.26012440  0.61318694    -0.94120
O197        O  0.24028175  0.31035258  0.62645931    -0.92550
O198        O  0.11528335  0.17788247  0.68959323    -0.92900
O199        O  0.04098959  0.15832671  0.65485194    -0.91690
C200        C  0.20580533  0.28281392  0.60929307     1.17370
H201        H  0.17724601  0.28495498  0.70999606     0.33320
H202        H  0.02623740  0.24373039  0.64176370     0.44170
H203        H  0.22713318  0.38083270  0.62820235     0.37690
H204        H  0.12843016  0.43370236  0.68554014     0.34170
H205        H  0.99267749  0.15667561  0.69508218     0.25960
H206        H  0.99694273  0.39129689  0.65266631     0.31900
H207        H  0.18518665  0.51373875  0.63157283     0.37810
H208        H  0.09020081  0.15234879  0.69890923     0.32270
H209        H  0.27747593  0.27505669  0.67922591     0.31140
H210        H  0.32934530  0.36535232  0.66189001     0.32830
H211        H  0.28177588  0.51808482  0.64029648     0.31790
H212        H  0.04832391  0.16982440  0.63880339     0.35790
H213        H  0.06165028  0.20913493  0.59808271     0.28520
H214        H  0.15908786  0.39901763  0.75868510     0.32760
H215        H  0.23351050  0.53620607  0.67389010     0.35610
H216        H  0.22367079  0.24269490  0.68702949     0.28220
H217        H  0.02353673  0.22643485  0.60197433     0.41750
H218        H  0.45715165  0.25438642  0.67602693     0.31150
H219        H  0.99178291  0.20630837  0.69962298     0.38760
H220        H  0.29319673  0.47448980  0.64342685     0.30610
H221        H  0.04343994  0.42762044  0.67055922     0.30680
H222        H  0.19485775  0.44717374  0.74623040     0.30940
C223        C  0.31007846  0.41410646  0.84360070     0.00480
C224        C  0.30159192  0.43890521  0.82481542     0.00480
C225        C  0.26515993  0.18230943  0.83095620     0.02200
C226        C  0.31313712  0.22694496  0.83182513     0.02200
C227        C  0.35816399  0.22529580  0.83298693     0.02200
C228        C  0.35589519  0.17838425  0.83309248     0.02200
C229        C  0.30778425  0.13319532  0.82950265     0.02200
C230        C  0.26176636  0.13445809  0.82790780     0.02200
C231        C  0.08540289  0.19001266  0.85174498     0.00480
C232        C  0.05183693  0.19083003  0.83417497     0.00480
C233        C  0.05780286  0.46348186  0.82827460     0.00480
C234        C  0.02844578  0.42000945  0.81379599     0.00480
C235        C  0.40422365  0.17698216  0.83524567    -0.05550
C236        C  0.41493703  0.15467776  0.81668967    -0.32980
C237        C  0.46019018  0.15451423  0.81768807     0.36270
C238        C  0.49900283  0.18103924  0.83658380    -0.05910
C239        C  0.48765562  0.20239695  0.85555139    -0.32880
C240        C  0.43998970  0.19807852  0.85546536     0.36180
H241        H  0.38786199  0.13699116  0.80119755     0.16550
O242        O  0.46616033  0.12864610  0.79959764    -0.60370
H243        H  0.51567379  0.22294228  0.87040201     0.16560
O244        O  0.42848107  0.21407867  0.87537330    -0.60470
H245        H  0.41936997  0.18678619  0.88617500     0.43560
H246        H  0.45661373  0.09535865  0.80543669     0.43510
C247        C  0.13259449  0.18953138  0.84647344    -0.05550
C248        C  0.16551076  0.22214186  0.83115586    -0.32980
C249        C  0.20447312  0.21631174  0.82391966     0.36270
C250        C  0.21953739  0.18569831  0.83597559    -0.05910
C251        C  0.18992657  0.15691621  0.85326108    -0.32880
C252        C  0.14534559  0.15573414  0.85718565     0.36180
H253        H  0.16048424  0.25121580  0.82374069     0.16550
O254        O  0.22538261  0.23865786  0.80416111    -0.60370
H255        H  0.19989333  0.13287354  0.86294660     0.16560
O256        O  0.11445913  0.12075503  0.87147995    -0.60470
H257        H  0.08842953  0.09264121  0.86048942     0.43560
H258        H  0.19959068  0.21945911  0.79062963     0.43510
C259        C  0.21005780  0.08622646  0.82407640    -0.05550
C260        C  0.19940646  0.04383272  0.83676423    -0.32980
C261        C  0.15182312  0.00028712  0.83410610     0.36270
C262        C  0.11030599  0.00158032  0.82296507    -0.05910
C263        C  0.11989296  0.04326029  0.81019304    -0.32880
C264        C  0.16951941  0.08309452  0.80898941     0.36180
H265        H  0.22716144  0.04428276  0.84957108     0.16550
O266        O  0.14504345  0.45905063  0.84554210    -0.60370
H267        H  0.08904847  0.04582097  0.80155988     0.16560
O268        O  0.17824523  0.11905756  0.79328526    -0.60470
H269        H  0.15159878  0.12770207  0.79411616     0.43560
H270        H  0.14557596  0.43620308  0.83318873     0.43510
C271        C  0.48355111  0.37099629  0.82030960    -0.05550
C272        C  0.47835666  0.35555690  0.84362891    -0.32980
C273        C  0.43762713  0.30874447  0.84859490     0.36270
C274        C  0.40630590  0.27279080  0.82987568    -0.05910
C275        C  0.41455075  0.28620444  0.80677105    -0.32880
C276        C  0.44787463  0.33556469  0.80211336     0.36180
H277        H  0.50475349  0.37984258  0.85824813     0.16550
O278        O  0.42689607  0.29969522  0.87152293    -0.60370
H279        H  0.39015819  0.25970025  0.79215382     0.16560
O280        O  0.44398252  0.34863148  0.77949223    -0.60470
H281        H  0.42569057  0.36722079  0.78017509     0.43560
H282        H  0.45886258  0.30831127  0.88102262     0.43510
C283        C  0.30606773  0.08429255  0.82832099    -0.05550
C284        C  0.28603225  0.05230967  0.80774880    -0.32980
C285        C  0.28101367  0.00449004  0.80696509     0.36270
C286        C  0.29784541  0.98730634  0.82701788    -0.05910
C287        C  0.31336454  0.01942078  0.84804385    -0.32880
C288        C  0.31922152  0.06723780  0.84862832     0.36180
H289        H  0.27285112  0.06396603  0.79226978     0.16550
O290        O  0.25576650  0.97371326  0.78688765    -0.60370
H291        H  0.31955519  0.00941653  0.86500850     0.16560
O292        O  0.33526016  0.09611014  0.86970591    -0.60470
H293        H  0.30453522  0.08601579  0.87754796     0.43560
H294        H  0.27574658  0.99088128  0.77379223     0.43510
C295        C  0.31749093  0.27680273  0.83439262    -0.05550
C296        C  0.31732089  0.29486772  0.85683554    -0.32980
C297        C  0.32008414  0.34094717  0.86061662     0.36270
C298        C  0.31981791  0.36964082  0.84107567    -0.05910
C299        C  0.33039276  0.35482048  0.81958455    -0.32880
C300        C  0.32615164  0.30808413  0.81560375     0.36180
H301        H  0.31615741  0.27336916  0.87181590     0.16550
O302        O  0.32978578  0.35958518  0.88374560    -0.60370
H303        H  0.34423231  0.37928115  0.80564205     0.16560
O304        O  0.33068547  0.29430776  0.79316634    -0.60470
H305        H  0.30396439  0.25896341  0.78915749     0.43560
H306        H  0.30238149  0.33411739  0.89217724     0.43510
C307        C  0.28393426  0.38954851  0.75061119    -0.05550
C308        C  0.24906987  0.35896920  0.76583665    -0.32980
C309        C  0.25461085  0.37410288  0.78994686     0.36270
C310        C  0.29696399  0.41950429  0.79964765    -0.05910
C311        C  0.33388529  0.44827516  0.78476483    -0.32880
C312        C  0.32718642  0.43392180  0.76044431     0.36180
H313        H  0.21535455  0.32502891  0.75862788     0.16550
O314        O  0.21775215  0.34508856  0.80374398    -0.60370
H315        H  0.36668573  0.48328254  0.79184801     0.16560
O316        O  0.36134173  0.46537346  0.74611214    -0.60470
H317        H  0.38586246  0.45382924  0.74552217     0.43560
H318        H  0.19805484  0.36205769  0.80518372     0.43510
C319        C  0.09461604  0.24126521  0.76567518    -0.05550
C320        C  0.09814528  0.27437424  0.78412860    -0.32980
C321        C  0.08312479  0.25756641  0.80609229     0.36270
C322        C  0.06843151  0.20796795  0.81076846    -0.05910
C323        C  0.06903207  0.17565597  0.79320202    -0.32880
C324        C  0.08099568  0.19169809  0.77056308     0.36180
H325        H  0.11145884  0.31342334  0.78149984     0.16550
O326        O  0.08486019  0.29044421  0.82329991    -0.60370
H327        H  0.05873711  0.13762885  0.79689301     0.16560
O328        O  0.07926131  0.15871790  0.75346018    -0.60470
H329        H  0.11348249  0.16345579  0.75487718     0.43560
H330        H  0.05103201  0.28667786  0.82153730     0.43510
C331        C  0.04576492  0.39163483  0.74278897    -0.05550
C332        C  0.03927771  0.43218035  0.74810503    -0.32980
C333        C  0.03520199  0.44361081  0.77157435     0.36270
C334        C  0.04282269  0.41711566  0.78987898    -0.05910
C335        C  0.05078417  0.37754326  0.78418498    -0.32880
C336        C  0.04847733  0.36271052  0.76070267     0.36180
H337        H  0.03658354  0.45416973  0.73411266     0.16550
O338        O  0.01834107  0.47607925  0.77626067    -0.60370
H339        H  0.05377474  0.35511513  0.79787339     0.16560
O340        O  0.04914536  0.31977455  0.75513133    -0.60470
H341        H  0.51357021  0.29246645  0.75383336     0.43560
H342        H  0.03688539  0.00556233  0.76698050     0.43510
C343        C  0.32322635  0.43675058  0.91894505    -0.05550
C344        C  0.36177406  0.46892897  0.90583999    -0.32980
C345        C  0.35676878  0.46402691  0.88121832     0.36270
C346        C  0.31051676  0.42918111  0.86873567    -0.05910
C347        C  0.26915254  0.40079731  0.88158645    -0.32880
C348        C  0.27581437  0.40333536  0.90665579     0.36180
H349        H  0.39671927  0.49724142  0.91480983     0.16550
O350        O  0.39684982  0.49389308  0.86914291    -0.60370
H351        H  0.23342630  0.37301804  0.87222110     0.16560
O352        O  0.23645918  0.37244782  0.91877121    -0.60470
H353        H  0.23848691  0.34158731  0.92014709     0.43560
H354        H  0.40195100  0.52812330  0.87097442     0.43510
C355        C  0.07436979  0.18196049  0.87676964    -0.05550
C356        C  0.03047161  0.13950706  0.88134875    -0.32980
C357        C  0.02248735  0.12531506  0.90429632     0.36270
C358        C  0.06038835  0.15136412  0.92346743    -0.05910
C359        C  0.10497118  0.19421682  0.91901519    -0.32880
C360        C  0.11164618  0.21023718  0.89590846     0.36180
H361        H  0.00248154  0.11590734  0.86694251     0.16550
O362        O  0.97768331  0.08409686  0.90756737    -0.60370
H363        H  0.13410358  0.21557669  0.93339119     0.16560
O364        O  0.15567281  0.25217065  0.89198405    -0.60470
H365        H  0.14744636  0.27919310  0.89058118     0.43560
H366        H  0.95153788  0.09110534  0.90072163     0.43510
C367        C  0.01480192  0.98525102  0.89590983    -0.05550
C368        C  0.47902829  0.46559930  0.87615455    -0.32980
C369        C  0.49288288  0.46199241  0.85360578     0.36270
C370        C  0.04249358  0.47351663  0.85119978    -0.05910
C371        C  0.07826184  0.99507199  0.87121290    -0.32880
C372        C  0.06501075  0.00151789  0.89313875     0.36180
H373        H  0.44006639  0.45071793  0.87841136     0.16550
O374        O  0.45816585  0.44764458  0.83409620    -0.60370
H375        H  0.11708923  0.00683689  0.87059200     0.16560
O376        O  0.10151350  0.02246541  0.91204161    -0.60470
H377        H  0.11245029  0.05866890  0.91300695     0.43560
H378        H  0.43012456  0.41414223  0.83692330     0.43510
C379        C  0.21458098  0.27839070  0.58351424    -0.05550
C380        C  0.25788877  0.28063943  0.57574303    -0.32980
C381        C  0.26037036  0.27117398  0.55119983     0.36270
C382        C  0.22014994  0.26144324  0.53387765    -0.05910
C383        C  0.17939110  0.26259776  0.54175261    -0.32880
C384        C  0.17544811  0.26907217  0.56565802     0.36180
H385        H  0.28869932  0.28740806  0.58866337     0.16550
O386        O  0.30134128  0.27022842  0.54455377    -0.60370
H387        H  0.14826736  0.25609212  0.52902222     0.16560
O388        O  0.13317711  0.26882014  0.57112844    -0.60470
H389        H  0.10447500  0.23695583  0.56353897     0.43560
H390        H  0.29347952  0.23514770  0.54587179     0.43510
C391        C  0.16351701  0.19016929  0.50399734    -0.05550
C392        C  0.12479074  0.18211975  0.48645199    -0.32980
C393        C  0.07849593  0.13696749  0.48406016     0.36270
C394        C  0.06791548  0.10161188  0.50113428    -0.05910
C395        C  0.10533229  0.11141569  0.51959953    -0.32880
C396        C  0.15331342  0.15310283  0.52018954     0.36180
H397        H  0.13018281  0.21057174  0.47442125     0.16550
O398        O  0.04496315  0.12628341  0.46438899    -0.60370
H399        H  0.09785312  0.08535401  0.53320238     0.16560
O400        O  0.18972958  0.15806243  0.53728412    -0.60470
H401        H  0.20747056  0.14328195  0.52964674     0.43560
H402        H  0.03839097  0.15448222  0.46388619     0.43510
C403        C  0.37880151  0.40933657  0.49553428    -0.05550
C404        C  0.34368253  0.40013005  0.51170682    -0.32980
C405        C  0.29669369  0.35606939  0.50924888     0.36270
C406        C  0.28718722  0.31542601  0.49348140    -0.05910
C407        C  0.32394826  0.32394142  0.47822008    -0.32880
C408        C  0.36718167  0.37111144  0.47795640     0.36180
H409        H  0.35124520  0.42873158  0.52537699     0.16550
O410        O  0.25960445  0.35569137  0.52079297    -0.60370
H411        H  0.31794299  0.29463176  0.46529193     0.16560
O412        O  0.39683154  0.38043163  0.45989283    -0.60470
H413        H  0.40568564  0.35377929  0.45949013     0.43560
H414        H  0.23674500  0.35802578  0.50829037     0.43510
C415        C  0.21762981  0.48216805  0.52947146    -0.05550
C416        C  0.20867332  0.43324601  0.52968717    -0.32980
C417        C  0.20389435  0.41093127  0.55096329     0.36270
C418        C  0.20782322  0.43756031  0.57212894    -0.05910
C419        C  0.22381114  0.48904707  0.57196436    -0.32880
C420        C  0.22873986  0.51144222  0.55069607     0.36180
H421        H  0.20110515  0.41110622  0.51321186     0.16550
O422        O  0.19364085  0.36263425  0.55077894    -0.60370
H423        H  0.22860780  0.51119732  0.58804228     0.16560
O424        O  0.23825650  0.05980814  0.55055997    -0.60470
H425        H  0.27532265  0.08111936  0.55256327     0.43560
H426        H  0.15936460  0.34226143  0.54250697     0.43510
C427        C  0.37792771  0.00358578  0.49749338    -0.05550
C428        C  0.34125598  0.97784369  0.47825856    -0.32980
C429        C  0.29466149  0.97499219  0.47717606     0.36270
C430        C  0.28503265  0.00133462  0.49465814    -0.05910
C431        C  0.32193607  0.52720547  0.51394709    -0.32880
C432        C  0.36700599  0.52670805  0.51591709     0.36180
H433        H  0.34850042  0.95904432  0.46412755     0.16550
O434        O  0.25826570  0.94537365  0.45921064    -0.60370
H435        H  0.31647250  0.54892755  0.52729347     0.16560
O436        O  0.40058862  0.54983085  0.53568859    -0.60470
H437        H  0.39368391  0.52271607  0.54637174     0.43560
H438        H  0.27195786  0.95994488  0.44433558     0.43510
C439        C  0.15947419  0.00334951  0.50449690    -0.05550
C440        C  0.14994751  0.03049437  0.48708827    -0.32980
C441        C  0.10450611  0.03062721  0.48427819     0.36270
C442        C  0.06932946  0.00848523  0.50070699    -0.05910
C443        C  0.08034146  0.48592383  0.51934718    -0.32880
C444        C  0.12179216  0.47943998  0.52026953     0.36180
H445        H  0.17636658  0.05201022  0.47512884     0.16550
O446        O  0.09357133  0.05019995  0.46476163    -0.60370
H447        H  0.05405315  0.46915104  0.53235113     0.16560
O448        O  0.12215548  0.44593212  0.53556702    -0.60470
H449        H  0.12300225  0.45960373  0.55167082     0.43560
H450        H  0.12174929  0.08519549  0.46485284     0.43510
C451        C  0.00957037  0.30046818  0.58380158    -0.05550
C452        C  0.04674323  0.32405992  0.56842223    -0.32980
C453        C  0.03773149  0.30909563  0.54460255     0.36270
C454        C  0.98972873  0.27161786  0.53496630    -0.05910
C455        C  0.45287105  0.24495868  0.55015080    -0.32880
C456        C  0.46250456  0.25958180  0.57460616     0.36180
H457        H  0.08321760  0.35570964  0.57467813     0.16550
O458        O  0.07449696  0.33577308  0.53026662    -0.60370
H459        H  0.41565044  0.21593957  0.54281377     0.16560
O460        O  0.42582276  0.23436150  0.58910576    -0.60470
H461        H  0.40525046  0.25067976  0.58816563     0.43560
H462        H  0.08032046  0.31084236  0.52202067     0.43510
C463        C  0.47165445  0.09973443  0.49978484    -0.05550
C464        C  0.44376871  0.10661368  0.48112403    -0.32980
C465        C  0.44289113  0.15113276  0.47999613     0.36270
C466        C  0.47342726  0.19236083  0.49679647    -0.05910
C467        C  0.00103351  0.18524126  0.51572189    -0.32880
C468        C  0.99868299  0.13883113  0.51778500     0.36180
H469        H  0.42291889  0.07732274  0.46701526     0.16550
O470        O  0.41403020  0.15468569  0.46135297    -0.60370
H471        H  0.02599335  0.21563984  0.52862330     0.16560
O472        O  0.02218919  0.13155422  0.53755966    -0.60470
H473        H  0.05789698  0.15844042  0.53859660     0.43560
H474        H  0.39077417  0.16281754  0.46857242     0.43510
C475        C  0.47606276  0.32136996  0.50531050    -0.05550
C476        C  0.00789521  0.35723936  0.49065169    -0.32980
C477        C  0.00280171  0.39881993  0.48559304     0.36270
C478        C  0.47535725  0.41215184  0.49981489    -0.05910
C479        C  0.44916035  0.37968939  0.51687277    -0.32880
C480        C  0.44525876  0.33295920  0.51790072     0.36180
H481        H  0.03441093  0.35152226  0.48184393     0.16550
O482        O  0.02282208  0.42503963  0.46633417    -0.60370
H483        H  0.42895511  0.38922301  0.52861207     0.16560
O484        O  0.41081120  0.29892102  0.53130513    -0.60470
H485        H  0.38113886  0.27670607  0.51990284     0.43560
H486        H  0.05717147  0.43034077  0.46653751     0.43510
C487        C  0.44636696  0.09178058  0.14890382    -0.05550
C488        C  0.47807146  0.07206453  0.14658719    -0.32980
C489        C  0.47927909  0.05135568  0.12465781     0.36270
C490        C  0.44853867  0.05059673  0.10479467    -0.05910
C491        C  0.41433747  0.06715913  0.10775389    -0.32880
C492        C  0.41369966  0.08848829  0.12944971     0.36180
H493        H  0.50279722  0.07394077  0.16171458     0.16550
O494        O  0.51097099  0.53286301  0.12288295    -0.60370
H495        H  0.38889578  0.06514849  0.09293499     0.16560
O496        O  0.37962363  0.10386542  0.13196287    -0.60470
H497        H  0.38580297  0.12898909  0.12019885     0.43560
H498        H  0.53978631  0.55868123  0.11537181     0.43510
C499        C  0.40548025  0.37084065  0.12755013    -0.05550
C500        C  0.40694801  0.33468931  0.11263256    -0.32980
C501        C  0.40136785  0.33555246  0.08768342     0.36270
C502        C  0.39074646  0.37068122  0.07708630    -0.05910
C503        C  0.38880522  0.40607963  0.09202463    -0.32880
C504        C  0.39769549  0.40746759  0.11671070     0.36180
H505        H  0.41167646  0.30538845  0.12028427     0.16550
O506        O  0.40722385  0.30244640  0.07378493    -0.60370
H507        H  0.38313478  0.43490490  0.08447880     0.16560
O508        O  0.39826761  0.44485839  0.13041311    -0.60470
H509        H  0.36403497  0.43970799  0.12748993     0.43560
H510        H  0.37304425  0.27286483  0.07020106     0.43510
C511        C  0.17019906  0.12012609  0.13063272    -0.05550
C512        C  0.14175149  0.07057018  0.12123961    -0.32980
C513        C  0.13687212  0.05867729  0.09720147     0.36270
C514        C  0.14825430  0.09654055  0.08118904    -0.05910
C515        C  0.18017491  0.14644078  0.09000215    -0.32880
C516        C  0.19382487  0.15803905  0.11466050     0.36180
H517        H  0.12133179  0.04028647  0.13219567     0.16550
O518        O  0.11523951  0.00910162  0.08929750    -0.60370
H519        H  0.19175457  0.17639024  0.07819277     0.16560
O520        O  0.22777097  0.20659009  0.12306720    -0.60470
H521        H  0.21295092  0.22693343  0.11751045     0.43560
H522        H  0.08213212  0.99127012  0.09555395     0.43510
C523        C  0.16737027  0.27073826  0.16762350    -0.05550
C524        C  0.13619682  0.23465676  0.14924822    -0.32980
C525        C  0.13345418  0.18826927  0.14704523     0.36270
C526        C  0.16718061  0.17931957  0.16139142    -0.05910
C527        C  0.20050869  0.21689476  0.17896800    -0.32880
C528        C  0.19814780  0.26044471  0.18329879     0.36180
H529        H  0.11325657  0.24226196  0.13656425     0.16550
O530        O  0.09992615  0.15307220  0.12968779    -0.60370
H531        H  0.22919720  0.21343663  0.18927341     0.16560
O532        O  0.22541916  0.29253973  0.20290632    -0.60470
H533        H  0.26013123  0.29881068  0.20313882     0.43560
H534        H  0.06656458  0.14749511  0.13269488     0.43510
C535        C  0.16873289  0.05356184  0.17201725    -0.05550
C536        C  0.14224411  0.51618104  0.18740414    -0.32980
C537        C  0.14542000  0.47255892  0.18822550     0.36270
C538        C  0.17032398  0.46193388  0.17138692    -0.05910
C539        C  0.19755418  0.49941948  0.15620485    -0.32880
C540        C  0.20038733  0.04622976  0.15791341     0.36180
H541        H  0.12031597  0.52162758  0.19973185     0.16550
O542        O  0.12655657  0.44181287  0.20631027    -0.60370
H543        H  0.21836187  0.49320140  0.14350610     0.16560
O544        O  0.23467486  0.08441629  0.14601173    -0.60470
H545        H  0.26741326  0.09713736  0.15567991     0.43560
H546        H  0.09201297  0.43542195  0.20709741     0.43510
C547        C  0.99167008  0.17185941  0.17397948    -0.05550
C548        C  0.99315808  0.20256607  0.15573991    -0.32980
C549        C  0.03479699  0.25028369  0.15426069     0.36270
C550        C  0.07551140  0.27025168  0.17207023    -0.05910
C551        C  0.07329721  0.24077009  0.19104989    -0.32880
C552        C  0.03305526  0.19143756  0.19156718     0.36180
H553        H  0.96272599  0.18877864  0.14172151     0.16550
O554        O  0.03704081  0.27563969  0.13447131    -0.60370
H555        H  0.10457215  0.25507741  0.20478995     0.16560
O556        O  0.03612647  0.16216921  0.20858114    -0.60470
H557        H  0.04702739  0.14097904  0.20063935     0.43560
H558        H  0.00820880  0.28129441  0.13399150     0.43510
C559        C  0.26500350  0.46029164  0.17353331    -0.05550
C560        C  0.27830175  0.49205179  0.19400560    -0.32980
C561        C  0.32558232  0.53576035  0.19825891     0.36270
C562        C  0.36442166  0.04641054  0.18347250    -0.05910
C563        C  0.35068324  0.51104694  0.16394884    -0.32880
C564        C  0.30090658  0.47279508  0.15754774     0.36180
H565        H  0.25121733  0.48376656  0.20656477     0.16550
O566        O  0.33217911  0.56791899  0.21688430    -0.60370
H567        H  0.37742638  0.01072912  0.15339301     0.16560
O568        O  0.28844944  0.44566492  0.13617831    -0.60470
H569        H  0.27921295  0.46433321  0.12485384     0.43560
H570        H  0.31858756  0.58859240  0.21029129     0.43510
C571        C  0.07301404  0.36506091  0.16807548    -0.05550
C572        C  0.04077700  0.33886386  0.18480207    -0.32980
C573        C  0.99225376  0.33067906  0.18356459     0.36270
C574        C  0.97636140  0.35667151  0.16790587    -0.05910
C575        C  0.01001016  0.38567770  0.15173860    -0.32880
C576        C  0.05673947  0.38794524  0.15097887     0.36180
H577        H  0.05239218  0.32213692  0.19860099     0.16550
O578        O  0.45994187  0.29441074  0.19697760    -0.60370
H579        H  0.00071945  0.40691216  0.13963528     0.16560
O580        O  0.08550118  0.41128320  0.13314458    -0.60470
H581        H  0.09296039  0.44646479  0.13461156     0.43560
H582        H  0.47425787  0.30579625  0.21372806     0.43510
C583        C  0.26115823  0.36372187  0.16562451    -0.05550
C584        C  0.30394582  0.38920215  0.18220834    -0.32980
C585        C  0.34896419  0.39156763  0.17810048     0.36270
C586        C  0.34999767  0.36154710  0.15925503    -0.05910
C587        C  0.30613577  0.33380946  0.14345284    -0.32880
C588        C  0.26355995  0.33750913  0.14562260     0.36180
H589        H  0.30342066  0.41016066  0.19759042     0.16550
O590        O  0.39211909  0.42576312  0.19169041    -0.60370
H591        H  0.30600147  0.31179718  0.12832242     0.16560
O592        O  0.22479500  0.31630495  0.12776761    -0.60470
H593        H  0.23190756  0.34321112  0.11693100     0.43560
H594        H  0.40698575  0.45605573  0.18263415     0.43510
C595        C  0.40874960  0.34248728  0.19450828    -0.05550
C596        C  0.36884191  0.29402943  0.19592930    -0.32980
C597        C  0.35896792  0.27328672  0.21768034     0.36270
C598        C  0.38387052  0.30220100  0.23916713    -0.05910
C599        C  0.42196113  0.35235956  0.23788079    -0.32880
C600        C  0.43578477  0.37194382  0.21575249     0.36180
H601        H  0.34932585  0.27000349  0.17987661     0.16550
O602        O  0.32779102  0.22310344  0.21744103    -0.60370
H603        H  0.44312612  0.37541769  0.25394082     0.16560
O604        O  0.47756430  0.41831804  0.21491853    -0.60470
H605        H  0.46973713  0.44263820  0.22223323     0.43560
H606        H  0.34981013  0.20852557  0.21686238     0.43510
C607        C  0.19176658  0.15094079  0.24775919    -0.05550
C608        C  0.23045341  0.15870839  0.23440853    -0.32980
C609        C  0.22099578  0.13922029  0.21127736     0.36270
C610        C  0.17345273  0.12049385  0.19922627    -0.05910
C611        C  0.13425070  0.11725187  0.21145600    -0.32880
C612        C  0.14294685  0.13083716  0.23609610     0.36180
H613        H  0.26748527  0.17378313  0.24323259     0.16550
O614        O  0.25753895  0.13521170  0.20098429    -0.60370
H615        H  0.09679488  0.10089909  0.20235075     0.16560
O616        O  0.10350930  0.12064804  0.24866799    -0.60470
H617        H  0.10031111  0.15095612  0.24816049     0.43560
H618        H  0.26563051  0.15671276  0.18746665     0.43510
C619        C  0.43375419  0.15207101  0.25965839    -0.05550
C620        C  0.42958505  0.17914613  0.24099195    -0.32980
C621        C  0.42763641  0.16318645  0.21749814     0.36270
C622        C  0.43049994  0.11990517  0.21254679    -0.05910
C623        C  0.43925198  0.09559545  0.23134164    -0.32880
C624        C  0.44086767  0.11146937  0.25482465     0.36180
H625        H  0.42314073  0.20992534  0.24451929     0.16550
O626        O  0.41848343  0.18733763  0.19953602    -0.60370
H627        H  0.44141022  0.06221621  0.22769439     0.16560
O628        O  0.44452125  0.08420512  0.27274951    -0.60470
H629        H  0.48082005  0.10113999  0.27835591     0.43560
H630        H  0.38246397  0.16570857  0.19368467     0.43510
C631        C  0.48672866  0.25679487  0.46710321    -0.05550
C632        C  0.51892994  0.24679479  0.45469150    -0.32980
C633        C  0.51787001  0.24893241  0.42995026     0.36270
C634        C  0.49041779  0.26841313  0.41821885    -0.05910
C635        C  0.47118490  0.29144484  0.43207130    -0.32880
C636        C  0.45942904  0.27548852  0.45448023     0.36180
H637        H  0.54047849  0.23219107  0.46371311     0.16550
O638        O  0.53818664  0.22658734  0.41734494    -0.60370
H639        H  0.45243256  0.30911579  0.42348263     0.16560
O640        O  0.41958796  0.27576236  0.46313877    -0.60470
H641        H  0.38995773  0.24259797  0.45769263     0.43560
H642        H  0.57405046  0.25253419  0.41746614     0.43510
C643        C  0.24066621  0.03330296  0.46937947    -0.05550
C644        C  0.21360182  0.00534246  0.44823897    -0.32980
C645        C  0.22523622  0.02716923  0.42680390     0.36270
C646        C  0.26393783  0.07766619  0.42670378    -0.05910
C647        C  0.28664173  0.10662772  0.44825550    -0.32880
C648        C  0.27537729  0.08465181  0.46951760     0.36180
H649        H  0.18576193  0.96593032  0.44831306     0.16550
O650        O  0.19966500  0.99843704  0.40619406    -0.60370
H651        H  0.31412658  0.14619649  0.44867339     0.16560
O652        O  0.29875178  0.11327945  0.49042260    -0.60470
H653        H  0.33050634  0.11295539  0.49345198     0.43560
H654        H  0.17125779  0.00432468  0.40263301     0.43510
C655        C  0.21056064  0.21362226  0.41486997    -0.05550
C656        C  0.21778176  0.26092732  0.42177486    -0.32980
C657        C  0.22118380  0.27589636  0.44584400     0.36270
C658        C  0.22084133  0.24484646  0.46396126    -0.05910
C659        C  0.20972240  0.19610327  0.45682026    -0.32880
C660        C  0.20239650  0.18000079  0.43267814     0.36180
H661        H  0.22504312  0.28802598  0.40869601     0.16550
O662        O  0.22953473  0.32302411  0.45156900    -0.60370
H663        H  0.20892203  0.17096327  0.46993823     0.16560
O664        O  0.19134699  0.13214608  0.42668174    -0.60470
H665        H  0.22433092  0.13488720  0.42631737     0.43560
H666        H  0.19682731  0.31780573  0.45558052     0.43510
Zr667      Zr  0.33948627  0.71273904  0.37825345     2.17510
O668        O  0.37334685  0.78954081  0.40384859    -0.51410
O669        O  0.30637801  0.64944081  0.40589215    -0.74620
O670        O  0.27763819  0.71582356  0.39910591    -0.81400
O671        O  0.47215656  0.74488100  0.37595186    -0.83150
O672        O  0.21091871  0.69685189  0.37223906    -0.78770
O673        O  0.41082942  0.71816722  0.40011653    -0.90410
O674        O  0.26842990  0.57321270  0.38564817    -0.76370
O675        O  0.26274470  0.64529057  0.36028508    -0.85860
O676        O  0.36125188  0.65405570  0.36403854    -0.85550
O677        O  0.31053688  0.75102483  0.35001064    -0.72310
O678        O  0.40317376  0.75932422  0.35315095    -0.84440
Zr679      Zr  0.31507952  0.66465908  0.28990732     2.26420
Zr680      Zr  0.23268104  0.68235385  0.33197376     2.06270
Zr681      Zr  0.42315971  0.69917497  0.33805023     2.10050
Zr682      Zr  0.28473708  0.58728135  0.34519767     1.78760
O683        O  0.51292549  0.74878734  0.33518395    -0.93250
O684        O  0.19770164  0.51984243  0.34349984    -0.41060
O685        O  0.34667772  0.62953068  0.31879061    -0.77690
O686        O  0.25195607  0.62090966  0.31670497    -0.96370
O687        O  0.29476032  0.72428635  0.30479502    -0.89680
O688        O  0.39242023  0.73343112  0.30795942    -0.92520
C689        C  0.28052402  0.60148305  0.40464492     1.01230
C690        C  0.45684830  0.74201037  0.39651618     1.14160
C691        C  0.23361251  0.70830461  0.39369945     1.04940
O692        O  0.14818470  0.61038410  0.33052367    -0.94680
O693        O  0.19919080  0.67442655  0.28987793    -0.90420
O694        O  0.22650884  0.62457953  0.27736672    -0.83560
C695        C  0.20396679  0.64878928  0.27321606     1.11580
O696        O  0.39953565  0.86291703  0.35196078    -0.96650
Zr697      Zr  0.37199134  0.79247257  0.32282369     1.88940
O698        O  0.34904570  0.73119511  0.26246246    -0.73300
O699        O  0.20045459  0.73965338  0.32877948    -0.52560
O700        O  0.32867855  0.83738688  0.31130038    -0.97240
O701        O  0.46078494  0.85393128  0.32254700    -0.54460
O702        O  0.38347612  0.80839421  0.28131190    -0.73810
C703        C  0.37147786  0.77931346  0.26247058     0.98530
O704        O  0.29044752  0.61312801  0.25277572    -0.62640
O705        O  0.43827376  0.63178002  0.34887635    -0.57440
O706        O  0.36862775  0.63064399  0.28311883    -0.94120
O707        O  0.44584775  0.68831565  0.29907519    -0.92550
O708        O  0.32571594  0.54145804  0.35897238    -0.92900
O709        O  0.26311206  0.51968378  0.31536817    -0.91690
C710        C  0.41574990  0.65715965  0.28203734     1.17370
H711        H  0.37380198  0.64101585  0.37639645     0.33320
H712        H  0.22109504  0.59062885  0.31086186     0.44170
H713        H  0.41659532  0.74863095  0.29672263     0.37690
H714        H  0.30460727  0.77514708  0.35800747     0.34170
H715        H  0.19884060  0.49417006  0.35319223     0.25960
H716        H  0.16695490  0.72141264  0.33450912     0.31900
H717        H  0.35327363  0.86664827  0.30347882     0.37810
H718        H  0.29835951  0.50972689  0.36397658     0.32270
H719        H  0.45578712  0.62795396  0.33591006     0.31140
H720        H  0.52609693  0.72660798  0.33988922     0.32830
H721        H  0.46173987  0.87810976  0.31119096     0.31790
H722        H  0.26179592  0.53386809  0.30007332     0.35790
H723        H  0.32004135  0.63064113  0.24396818     0.28520
H724        H  0.36246193  0.77884753  0.41962927     0.32760
H725        H  0.41099369  0.89292302  0.34280816     0.35610
H726        H  0.46421945  0.64647787  0.36267348     0.28220
H727        H  0.28837268  0.58112142  0.25663815     0.41090
H728        H  0.14705389  0.59678961  0.34619542     0.31150
H729        H  0.18144373  0.53377061  0.35293493     0.38760
H730        H  0.47488069  0.83575051  0.31459043     0.30610
H731        H  0.22129504  0.76718991  0.34113994     0.30680
H732        H  0.35472195  0.80622037  0.39816572     0.30940
C733        C  0.21428992  0.86548421  0.16866789     0.02200
C734        C  0.21521516  0.91208729  0.17018558     0.02200
C735        C  0.16920877  0.91254187  0.16997403     0.02200
C736        C  0.12239428  0.86599361  0.16881267     0.02200
C737        C  0.12271870  0.81981863  0.17004894     0.02200
C738        C  0.16838646  0.81978846  0.16934107     0.02200
C739        C  0.16705577  0.60176461  0.17423190     0.00480
C740        C  0.16990367  0.63261957  0.15636454     0.00480
C741        C  0.42757335  0.85643065  0.17073321     0.00480
C742        C  0.39776644  0.86368995  0.15344143     0.00480
C743        C  0.41656756  0.59484951  0.18824104     0.00480
C744        C  0.44968230  0.61774616  0.17160933     0.00480
C745        C  0.47933939  0.74297574  0.49226175     0.00480
C746        C  0.47719517  0.77385152  0.50953077     0.00480
C747        C  0.24015772  0.50821670  0.49072554     0.00480
C748        C  0.20723590  0.99943766  0.50711336     0.00480
C749        C  0.01996388  0.50705423  0.49863310     0.02200
C750        C  0.47422245  0.96011164  0.49777206     0.02200
C751        C  0.42749652  0.95894725  0.49709455     0.02200
C752        C  0.42700932  0.50481998  0.49830774     0.02200
C753        C  0.47281064  0.55171132  0.49962849     0.02200
C754        C  0.01920883  0.55271851  0.49941325     0.02200
C755        C  0.23795220  0.76598240  0.48983952     0.00480
C756        C  0.21163320  0.74009564  0.50836453     0.00480
Zr757      Zr  0.44959771  0.53292112  0.95883810     2.17510
O758        O  0.40530968  0.56955369  0.93657318    -0.51410
O759        O  0.97300441  0.50469434  0.92376680    -0.74620
O760        O  0.00554436  0.61865707  0.95217963    -0.81400
O761        O  0.33068673  0.90443130  0.95687007    -0.83150
O762        O  0.08219638  0.63166226  0.96270599    -0.78770
O763        O  0.35929695  0.48511746  0.95529472    -0.90410
O764        O  0.01927666  0.96960609  0.93546512    -0.76370
O765        O  0.02917302  0.53975971  0.96927009    -0.85860
O766        O  0.43335193  0.94989522  0.96573018    -0.85550
O767        O  0.98920465  0.59314068  0.99274300    -0.72310
O768        O  0.39522514  0.50319371  0.98947712    -0.84440
Zr769      Zr  0.99496894  0.48698439  0.03972362     2.26420
Zr770      Zr  0.06900424  0.59905716  0.00301559     2.06270
Zr771      Zr  0.37782078  0.91948481  0.99667227     2.10050
Zr772      Zr  0.01312337  0.45795208  0.97654266     1.78760
O773        O  0.29194157  0.89596652  0.00206573    -0.93250
O774        O  0.10121283  0.48957863  0.97182709    -0.41060
O775        O  0.45786966  0.92688123  0.00655160    -0.77690
O776        O  0.05233343  0.51607886  0.01039150    -0.96370
O777        O  0.01365464  0.57008011  0.03322917    -0.89680
O778        O  0.41568552  0.48035006  0.02999224    -0.92520
C779        C  0.00076390  0.48610981  0.91981763     1.01230
C780        C  0.33541006  0.94125642  0.94510960     1.14160
C781        C  0.05000961  0.63425138  0.94768638     1.04940
O782        O  0.15650011  0.63174069  0.99690411    -0.94680
O783        O  0.12201719  0.60914197  0.04093873    -0.90420
O784        O  0.07190011  0.54290513  0.06105841    -0.83560
C785        C  0.11307439  0.58270802  0.05920891     1.11580
O786        O  0.39574311  0.60332883  0.00040757    -0.96650
Zr787      Zr  0.43455102  0.56289781  0.02268962     1.88940
O788        O  0.47260182  0.51047496  0.07615912    -0.73300
O789        O  0.08896937  0.68376038  0.01511728    -0.52560
O790        O  0.47942561  0.65036678  0.03828925    -0.97240
O791        O  0.35220245  0.53952114  0.03439994    -0.54460
O792        O  0.44207479  0.56067074  0.06466295    -0.73810
C793        C  0.45491812  0.53932084  0.08042966     0.98530
O794        O  0.04060594  0.94573977  0.05440273    -0.62640
O795        O  0.35463027  0.83282139  0.98715200    -0.57440
O796        O  0.44498256  0.90141380  0.04828893    -0.94120
O797        O  0.36708449  0.88452768  0.03686237    -0.92550
O798        O  0.97281489  0.87541750  0.95528777    -0.92900
O799        O  0.04087935  0.90475745  0.99525006    -0.91690
C800        C  0.39984313  0.88331096  0.05217658     1.17370
H801        H  0.41839301  0.92802439  0.95139825     0.33320
H802        H  0.08318701  0.51726003  0.01601395     0.44170
H803        H  0.39531436  0.47020540  0.04294864     0.37690
H804        H  0.99381457  0.62601171  0.99047090     0.34170
H805        H  0.10076294  0.46711915  0.95898958     0.25960
H806        H  0.12258336  0.69918907  0.02420102     0.31900
H807        H  0.45851563  0.65227678  0.05004880     0.37810
H808        H  0.99955441  0.87516784  0.94701385     0.32270
H809        H  0.31933905  0.81639749  0.97997024     0.31140
H810        H  0.27437573  0.85910996  0.00285628     0.32830
H811        H  0.35874022  0.56574797  0.04680342     0.31790
H812        H  0.06975169  0.92758372  0.00684904     0.35790
H813        H  0.02598627  0.91325237  0.04495411     0.28520
H814        H  0.42792195  0.60615036  0.93639342     0.32760
H815        H  0.39422987  0.62675556  0.01201916     0.35610
H816        H  0.37383264  0.83447807  0.97380495     0.28220
H817        H  0.07423590  0.46527763  0.04889250     0.41090
H818        H  0.15945657  0.60153299  0.99462330     0.31150
H819        H  0.11250195  0.52200946  0.96473744     0.38760
H820        H  0.34201036  0.50890525  0.04296399     0.30610
H821        H  0.09484204  0.70115207  0.00030687     0.30680
H822        H  0.37961559  0.56763226  0.94640732     0.30940
Zr823      Zr  0.15630465  0.86612819  0.71049778     2.17510
O824        O  0.18771689  0.91279258  0.74907004    -0.51410
O825        O  0.12932213  0.80683010  0.74045269    -0.74620
O826        O  0.11056765  0.90589667  0.72156063    -0.81400
O827        O  0.26634481  0.85060221  0.71043766    -0.83150
O828        O  0.03192676  0.85718326  0.70334993    -0.78770
O829        O  0.24606348  0.90851754  0.71829332    -0.90410
O830        O  0.08468750  0.72747895  0.72355132    -0.76370
O831        O  0.07417756  0.80167951  0.69513011    -0.85860
O832        O  0.16604138  0.79780391  0.69703224    -0.85550
O833        O  0.12986564  0.90434890  0.68058336    -0.72310
O834        O  0.21898506  0.89829707  0.68347361    -0.84440
Zr835      Zr  0.12025300  0.80645874  0.62248044     2.26420
Zr836      Zr  0.04761207  0.83783071  0.66433980     2.06270
Zr837      Zr  0.22702355  0.82898000  0.66853215     2.10050
Zr838      Zr  0.08440389  0.73483565  0.68100448     1.78760
O839        O  0.31609455  0.88689221  0.66704705    -0.93250
O840        O  0.99606835  0.68612906  0.68714656    -0.41060
O841        O  0.14388548  0.76672043  0.65245430    -0.77690
O842        O  0.05775124  0.76984551  0.64973754    -0.96370
O843        O  0.11106338  0.87296521  0.63779117    -0.89680
O844        O  0.20246630  0.86859076  0.63933220    -0.92520
C845        C  0.10377313  0.75931459  0.74166485     1.01230
C846        C  0.26656063  0.88347033  0.72492080     1.14160
C847        C  0.06318055  0.88604104  0.72072909     1.04940
O848        O  0.45901518  0.78320734  0.66852251    -0.94680
O849        O  0.99653926  0.80540728  0.62566419    -0.90420
O850        O  0.07128070  0.84567857  0.61560285    -0.83560
C851        C  0.02495829  0.81804415  0.60923039     1.11580
O852        O  0.22705316  0.00704166  0.68298960    -0.96650
Zr853      Zr  0.19229032  0.93535441  0.65386903     1.88940
O854        O  0.16546083  0.86389336  0.59313219    -0.73300
O855        O  0.03355350  0.90672520  0.65539648    -0.52560
O856        O  0.15789653  0.98668899  0.63948947    -0.97240
O857        O  0.28099467  0.99419525  0.65174889    -0.54460
O858        O  0.20113310  0.94120845  0.61248145    -0.73810
C859        C  0.19069088  0.91220416  0.59389290     0.98530
O860        O  0.05567028  0.73726495  0.59541754    -0.62640
O861        O  0.24154301  0.75916954  0.67329057    -0.57440
O862        O  0.16016796  0.76009936  0.61318481    -0.94120
O863        O  0.24028804  0.81036697  0.62644915    -0.92550
O864        O  0.11540600  0.67789729  0.68962233    -0.92900
O865        O  0.04114095  0.65824489  0.65486245    -0.91690
C866        C  0.20581154  0.78280721  0.60928798     1.17370
H867        H  0.17729189  0.78495737  0.70998914     0.33320
H868        H  0.02622963  0.74361004  0.64176435     0.44170
H869        H  0.22707922  0.88082282  0.62818653     0.37690
H870        H  0.12830141  0.93357816  0.68553235     0.34170
H871        H  0.99268541  0.65647271  0.69498061     0.25960
H872        H  0.99659212  0.89096443  0.65286289     0.31900
H873        H  0.18495508  0.01359950  0.63154071     0.37810
H874        H  0.09032533  0.65234805  0.69893337     0.32270
H875        H  0.27755786  0.77514785  0.67920537     0.31140
H876        H  0.32937171  0.86546039  0.66188872     0.32830
H877        H  0.28161985  0.01808400  0.64029081     0.31790
H878        H  0.04816633  0.66976442  0.63879572     0.35790
H879        H  0.06165517  0.70908337  0.59805757     0.28520
H880        H  0.15910139  0.89899029  0.75868367     0.32760
H881        H  0.23325531  0.03613058  0.67386118     0.35610
H882        H  0.22376184  0.74275159  0.68701348     0.28220
H883        H  0.02351843  0.72634684  0.60196161     0.41750
H884        H  0.45779379  0.75616427  0.67793315     0.31150
H885        H  0.99181424  0.70608103  0.69964551     0.38760
H886        H  0.29310288  0.97453249  0.64343059     0.30610
H887        H  0.04343320  0.92751596  0.67052882     0.30680
H888        H  0.19486601  0.94714209  0.74622437     0.30940
C889        C  0.31022183  0.91417123  0.84356382     0.00480
C890        C  0.30166178  0.93894000  0.82478396     0.00480
C891        C  0.26517940  0.68232102  0.83096697     0.02200
C892        C  0.31315496  0.72695319  0.83183555     0.02200
C893        C  0.35818337  0.72530864  0.83299333     0.02200
C894        C  0.35591793  0.67839883  0.83309389     0.02200
C895        C  0.30780492  0.63320723  0.82950525     0.02200
C896        C  0.26178667  0.63446983  0.82791957     0.02200
C897        C  0.08543014  0.69003796  0.85175295     0.00480
C898        C  0.05185668  0.69083437  0.83418039     0.00480
C899        C  0.05775249  0.96352236  0.82825432     0.00480
C900        C  0.02839869  0.92004210  0.81378196     0.00480
C901        C  0.40425079  0.67700260  0.83524670    -0.05550
C902        C  0.41495446  0.65467267  0.81669743    -0.32980
C903        C  0.46020494  0.65450217  0.81769933     0.36270
C904        C  0.49902291  0.68104117  0.83659153    -0.05910
C905        C  0.48768400  0.70241985  0.85555338    -0.32880
C906        C  0.44002271  0.69811367  0.85546421     0.36180
H907        H  0.38787249  0.63696873  0.80120877     0.16550
O908        O  0.46616740  0.62861274  0.79961591    -0.60370
H909        H  0.51570591  0.72297452  0.87040151     0.16560
O910        O  0.42852236  0.71413755  0.87536770    -0.60470
H911        H  0.41949743  0.68689705  0.88619367     0.43560
H912        H  0.45662292  0.59533291  0.80546405     0.43510
C913        C  0.13262309  0.68955629  0.84648556    -0.05550
C914        C  0.16553030  0.72215348  0.83116194    -0.32980
C915        C  0.20448575  0.71631441  0.82392456     0.36270
C916        C  0.21956150  0.68571608  0.83598727    -0.05910
C917        C  0.18996213  0.65694992  0.85327918    -0.32880
C918        C  0.14538271  0.65577034  0.85720490     0.36180
H919        H  0.16049746  0.75121856  0.82374006     0.16550
O920        O  0.22536201  0.73862105  0.80415329    -0.60370
H921        H  0.19993501  0.63291542  0.86296833     0.16560
O922        O  0.11450581  0.62080303  0.87150624    -0.60470
H923        H  0.08850099  0.59265955  0.86052117     0.43560
H924        H  0.19954819  0.71940722  0.79063145     0.43510
C925        C  0.21008079  0.58623582  0.82409885    -0.05550
C926        C  0.19945111  0.54384630  0.83678661    -0.32980
C927        C  0.15188044  0.50028250  0.83412265     0.36270
C928        C  0.11034970  0.50155488  0.82298319    -0.05910
C929        C  0.11991524  0.54323710  0.81021756    -0.32880
C930        C  0.16953231  0.58308779  0.80901423     0.36180
H931        H  0.22722274  0.54430901  0.84958993     0.16550
O932        O  0.14496435  0.95905374  0.84553064    -0.60370
H933        H  0.08906102  0.54578692  0.80158903     0.16560
O934        O  0.17823925  0.61904660  0.79331009    -0.60470
H935        H  0.15158186  0.62767519  0.79414239     0.43560
H936        H  0.14546872  0.93618611  0.83317876     0.43510
C937        C  0.48350907  0.87103525  0.82030115    -0.05550
C938        C  0.47833042  0.85560798  0.84362236    -0.32980
C939        C  0.43762993  0.80878041  0.84859293     0.36270
C940        C  0.40631764  0.77281027  0.82987683    -0.05910
C941        C  0.41453756  0.78622533  0.80677039    -0.32880
C942        C  0.44783579  0.83559033  0.80210878     0.36180
H943        H  0.50472117  0.87991080  0.85823926     0.16550
O944        O  0.42691541  0.79973167  0.87152295    -0.60370
H945        H  0.39014897  0.75971161  0.79215545     0.16560
O946        O  0.44392976  0.84864736  0.77948689    -0.60470
H947        H  0.42561256  0.86721151  0.78016856     0.43560
H948        H  0.45889175  0.80836705  0.88101870     0.43510
C949        C  0.30608584  0.58430133  0.82832729    -0.05550
C950        C  0.28593313  0.55224735  0.80777809    -0.32980
C951        C  0.28088103  0.50441310  0.80701441     0.36270
C952        C  0.29784948  0.48730892  0.82704931    -0.05910
C953        C  0.31358708  0.51953600  0.84804786    -0.32880
C954        C  0.31937022  0.56732025  0.84862500     0.36180
H955        H  0.27266330  0.56384922  0.79230811     0.16550
O956        O  0.25550448  0.47355694  0.78697402    -0.60370
H957        H  0.32006680  0.50967315  0.86499912     0.16560
O958        O  0.33551315  0.59625132  0.86968742    -0.60470
H959        H  0.30482519  0.58623742  0.87754835     0.43560
H960        H  0.27542310  0.49064129  0.77384828     0.43510
C961        C  0.31751294  0.77681337  0.83438080    -0.05550
C962        C  0.31755260  0.79501175  0.85682969    -0.32980
C963        C  0.32046416  0.84116717  0.86059532     0.36270
C964        C  0.32000179  0.86973096  0.84103337    -0.05910
C965        C  0.33038434  0.85477835  0.81952107    -0.32880
C966        C  0.32609905  0.80801807  0.81556438     0.36180
H967        H  0.31651514  0.77359472  0.87182577     0.16550
O968        O  0.33057745  0.86004266  0.88370365    -0.60370
H969        H  0.34413838  0.87915627  0.80554453     0.16560
O970        O  0.33054427  0.79415694  0.79312487    -0.60470
H971        H  0.30390751  0.75876020  0.78917088     0.43560
H972        H  0.30341848  0.83464477  0.89227458     0.43510
C973        C  0.28395407  0.88955475  0.75058695    -0.05550
C974        C  0.24906993  0.85901477  0.76581334    -0.32980
C975        C  0.25462786  0.87416408  0.78992120     0.36270
C976        C  0.29702114  0.91953430  0.79961946    -0.05910
C977        C  0.33396551  0.94826004  0.78473763    -0.32880
C978        C  0.32724813  0.93389359  0.76041738     0.36180
H979        H  0.21533056  0.82509675  0.75860661     0.16550
O980        O  0.21775183  0.84519502  0.80371980    -0.60370
H981        H  0.36679735  0.98324256  0.79182081     0.16560
O982        O  0.36143034  0.96530091  0.74608353    -0.60470
H983        H  0.38590638  0.95369896  0.74549566     0.43560
H984        H  0.19807426  0.86219016  0.80514120     0.43510
C985        C  0.09461560  0.74122666  0.76567322    -0.05550
C986        C  0.09814717  0.77434502  0.78412260    -0.32980
C987        C  0.08313193  0.75755023  0.80608834     0.36270
C988        C  0.06844333  0.70795637  0.81077128    -0.05910
C989        C  0.06904022  0.67563456  0.79320900    -0.32880
C990        C  0.08099780  0.69166322  0.77056755     0.36180
H991        H  0.11145976  0.81339206  0.78148940     0.16550
O992        O  0.08486841  0.79043674  0.82329148    -0.60370
H993        H  0.05874782  0.63761060  0.79690526     0.16560
O994        O  0.07926043  0.65867391  0.75346882    -0.60470
H995        H  0.11348130  0.66341096  0.75488645     0.43560
H996        H  0.05104360  0.78667822  0.82152395     0.43510
C997        C  0.04573299  0.89160901  0.74278716    -0.05550
C998        C  0.03924273  0.93215777  0.74809027    -0.32980
C999        C  0.03516577  0.94360989  0.77155591     0.36270
C1000       C  0.04278092  0.91712856  0.78986885    -0.05910
C1001       C  0.05074704  0.87755381  0.78418796    -0.32880
C1002       C  0.04844766  0.86270290  0.76070983     0.36180
H1003       H  0.03655032  0.95413464  0.73409123     0.16550
O1004       O  0.01831433  0.97609073  0.77623129    -0.60370
H1005       H  0.05373822  0.85513925  0.79788346     0.16560
O1006       O  0.04912838  0.81976828  0.75515158    -0.60470
H1007       H  0.51355577  0.79245113  0.75385009     0.43560
H1008       H  0.03689543  0.50555497  0.76700975     0.43510
C1009       C  0.32320721  0.93670148  0.91891423    -0.05550
C1010       C  0.36170623  0.96903419  0.90582264    -0.32980
C1011       C  0.35674667  0.96416581  0.88119993     0.36270
C1012       C  0.31057408  0.92916479  0.86870167    -0.05910
C1013       C  0.26924426  0.90057585  0.88153949    -0.32880
C1014       C  0.27587269  0.90311003  0.90660795     0.36180
H1015       H  0.39659820  0.99743250  0.91480202     0.16550
O1016       O  0.39680278  0.99418672  0.86914361    -0.60370
H1017       H  0.23358731  0.87267524  0.87216307     0.16560
O1018       O  0.23656284  0.87205556  0.91870731    -0.60470
H1019       H  0.23877800  0.84129746  0.92008307     0.43560
H1020       H  0.40171996  0.02834547  0.87097194     0.43510
C1021       C  0.07439637  0.68199413  0.87677659    -0.05550
C1022       C  0.03052185  0.63951581  0.88135453    -0.32980
C1023       C  0.02255520  0.62530784  0.90430079     0.36270
C1024       C  0.06044374  0.65138827  0.92347333    -0.05910
C1025       C  0.10500025  0.69427376  0.91902240    -0.32880
C1026       C  0.11166263  0.71029352  0.89591504     0.36180
H1027       H  0.00254536  0.61590084  0.86694678     0.16550
O1028       O  0.97778887  0.58403723  0.90756877    -0.60370
H1029       H  0.13412184  0.71565635  0.93339928     0.16560
O1030       O  0.15566877  0.75224940  0.89198934    -0.60470
H1031       H  0.14740526  0.77924424  0.89057395     0.43560
H1032       H  0.95159799  0.59094811  0.90068802     0.43510
C1033       C  0.01488906  0.48519497  0.89594268    -0.05550
C1034       C  0.47894634  0.96570756  0.87610484    -0.32980
C1035       C  0.49282112  0.96208034  0.85356297     0.36270
C1036       C  0.04243499  0.97356807  0.85117420    -0.05910
C1037       C  0.07833590  0.49504605  0.87123297    -0.32880
C1038       C  0.06509806  0.50149193  0.89316216     0.36180
H1039       H  0.43998487  0.95088442  0.87834478     0.16550
O1040       O  0.45812742  0.94774754  0.83404539    -0.60370
H1041       H  0.11716684  0.50683574  0.87060602     0.16560
O1042       O  0.10161328  0.52246514  0.91205915    -0.60470
H1043       H  0.11253754  0.55866558  0.91301751     0.43560
H1044       H  0.43010269  0.91422317  0.83685614     0.43510
C1045       C  0.21458895  0.77838118  0.58351166    -0.05550
C1046       C  0.25789580  0.78062182  0.57574468    -0.32980
C1047       C  0.26038064  0.77115153  0.55120321     0.36270
C1048       C  0.22016518  0.76142544  0.53387959    -0.05910
C1049       C  0.17940714  0.76258767  0.54175057    -0.32880
C1050       C  0.17546016  0.76906606  0.56565483     0.36180
H1051       H  0.28870181  0.78738666  0.58866714     0.16550
O1052       O  0.30134851  0.77019567  0.54456022    -0.60370
H1053       H  0.14828789  0.75608517  0.52901792     0.16560
O1054       O  0.13319368  0.76882577  0.57112420    -0.60470
H1055       H  0.10448527  0.73698310  0.56352008     0.43560
H1056       H  0.29348613  0.73511672  0.54588679     0.43510
C1057       C  0.16353350  0.69015078  0.50400221    -0.05550
C1058       C  0.12480483  0.68210708  0.48645985    -0.32980
C1059       C  0.07850419  0.63696154  0.48407186     0.36270
C1060       C  0.06792199  0.60160719  0.50114682    -0.05910
C1061       C  0.10534245  0.61140557  0.51960926    -0.32880
C1062       C  0.15332770  0.65308536  0.52019534     0.36180
H1063       H  0.13019890  0.71055917  0.47442885     0.16550
O1064       O  0.04496711  0.62628162  0.46440298    -0.60370
H1065       H  0.09786279  0.58534426  0.53321234     0.16560
O1066       O  0.18974578  0.65804021  0.53728749    -0.60470
H1067       H  0.20747737  0.64325056  0.52964888     0.43560
H1068       H  0.03840335  0.65448604  0.46390092     0.43510
C1069       C  0.37881428  0.90932574  0.49553294    -0.05550
C1070       C  0.34369721  0.90012060  0.51170631    -0.32980
C1071       C  0.29671180  0.85605521  0.50925249     0.36270
C1072       C  0.28720731  0.81540844  0.49348757    -0.05910
C1073       C  0.32396894  0.82392188  0.47822692    -0.32880
C1074       C  0.36719849  0.87109394  0.47795955     0.36180
H1075       H  0.35125790  0.92872635  0.52537373     0.16550
O1076       O  0.25962299  0.85567588  0.52079755    -0.60370
H1077       H  0.31796468  0.79460909  0.46530092     0.16560
O1078       O  0.39684613  0.88041051  0.45989534    -0.60470
H1079       H  0.40570764  0.85376347  0.45949644     0.43560
H1080       H  0.23676675  0.85801801  0.50829600     0.43510
C1081       C  0.21762223  0.98215128  0.52946550    -0.05550
C1082       C  0.20865957  0.93322683  0.52968028    -0.32980
C1083       C  0.20385670  0.91090179  0.55095506     0.36270
C1084       C  0.20776412  0.93752230  0.57211978    -0.05910
C1085       C  0.22376418  0.98901236  0.57195783    -0.32880
C1086       C  0.22872155  0.01141883  0.55069133     0.36180
H1087       H  0.20110575  0.91109322  0.51320454     0.16550
O1088       O  0.19361467  0.86260817  0.55077132    -0.60370
H1089       H  0.22855020  0.01115791  0.58803565     0.16560
O1090       O  0.23826319  0.55982753  0.55056308    -0.60470
H1091       H  0.27532867  0.58114582  0.55256347     0.43560
H1092       H  0.15937738  0.84223425  0.54245867     0.43510
C1093       C  0.37793211  0.50360285  0.49750388    -0.05550
C1094       C  0.34126559  0.47787067  0.47826612    -0.32980
C1095       C  0.29467255  0.47502199  0.47718200     0.36270
C1096       C  0.28504104  0.50136043  0.49466490    -0.05910
C1097       C  0.32193051  0.02718456  0.51393860    -0.32880
C1098       C  0.36700321  0.02669267  0.51590653     0.36180
H1099       H  0.34851219  0.45907496  0.46413431     0.16550
O1100       O  0.25828015  0.44540825  0.45921450    -0.60370
H1101       H  0.31646750  0.04890786  0.52728466     0.16560
O1102       O  0.40059010  0.04982245  0.53567606    -0.60470
H1103       H  0.39369381  0.02271072  0.54636001     0.43560
H1104       H  0.27197618  0.45998344  0.44434069     0.43510
C1105       C  0.15946965  0.50334909  0.50450314    -0.05550
C1106       C  0.14993860  0.53049236  0.48709550    -0.32980
C1107       C  0.10449444  0.53061878  0.48428583     0.36270
C1108       C  0.06931835  0.50847173  0.50071441    -0.05910
C1109       C  0.08035383  0.98594502  0.51934273    -0.32880
C1110       C  0.12179775  0.97945055  0.52026469     0.36180
H1111       H  0.17635719  0.55201363  0.47513699     0.16550
O1112       O  0.09355608  0.55019068  0.46476982    -0.60370
H1113       H  0.05406724  0.96918000  0.53234804     0.16560
O1114       O  0.12215184  0.94593789  0.53556158    -0.60470
H1115       H  0.12298676  0.95960259  0.55166514     0.43560
H1116       H  0.12173709  0.58518380  0.46485774     0.43510
C1117       C  0.00949793  0.80037482  0.58382622    -0.05550
C1118       C  0.04668520  0.82401511  0.56845919    -0.32980
C1119       C  0.03770777  0.80908924  0.54463643     0.36270
C1120       C  0.98972105  0.77160611  0.53498423    -0.05910
C1121       C  0.45284289  0.74489137  0.55015635    -0.32880
C1122       C  0.46244450  0.75946301  0.57461677     0.36180
H1123       H  0.08314295  0.85567519  0.57472781     0.16550
O1124       O  0.07448963  0.83580780  0.53031471    -0.60370
H1125       H  0.41563502  0.71586939  0.54280546     0.16560
O1126       O  0.42575081  0.73418958  0.58910374    -0.60470
H1127       H  0.40515323  0.75048066  0.58816728     0.43560
H1128       H  0.08030852  0.81089578  0.52204703     0.43510
C1129       C  0.47166675  0.59974375  0.49980215    -0.05550
C1130       C  0.44378009  0.60662488  0.48114246    -0.32980
C1131       C  0.44290047  0.65114250  0.48001678     0.36270
C1132       C  0.47344123  0.69237011  0.49681619    -0.05910
C1133       C  0.00105527  0.68525327  0.51573721    -0.32880
C1134       C  0.99870190  0.63884188  0.51780002     0.36180
H1135       H  0.42292913  0.57733556  0.46703315     0.16550
O1136       O  0.41403430  0.65469531  0.46137602    -0.60370
H1137       H  0.02601905  0.71565360  0.52863731     0.16560
O1138       O  0.02220966  0.63156395  0.53757373    -0.60470
H1139       H  0.05791944  0.65844371  0.53860717     0.43560
H1140       H  0.39077746  0.66282282  0.46859776     0.43510
C1141       C  0.47609360  0.82138784  0.50533139    -0.05550
C1142       C  0.00792109  0.85724770  0.49066398    -0.32980
C1143       C  0.00282228  0.89882254  0.48559857     0.36270
C1144       C  0.47537770  0.91216099  0.49981937    -0.05910
C1145       C  0.44919612  0.87971686  0.51688600    -0.32880
C1146       C  0.44530370  0.83299203  0.51792534     0.36180
H1147       H  0.03443409  0.85152578  0.48185645     0.16550
O1148       O  0.02283725  0.92503049  0.46633608    -0.60370
H1149       H  0.42899673  0.88926097  0.52862434     0.16560
O1150       O  0.41087924  0.79897413  0.53134517    -0.60470
H1151       H  0.38119598  0.77674047  0.51995235     0.43560
H1152       H  0.05718935  0.93033802  0.46654137     0.43510
C1153       C  0.44636120  0.59179418  0.14891333    -0.05550
C1154       C  0.47806649  0.57208029  0.14659534    -0.32980
C1155       C  0.47928039  0.55138260  0.12466467     0.36270
C1156       C  0.44854946  0.55063796  0.10480071    -0.05910
C1157       C  0.41434693  0.56719789  0.10776022    -0.32880
C1158       C  0.41369756  0.58850944  0.12945897     0.36180
H1159       H  0.50278760  0.57394887  0.16172306     0.16550
O1160       O  0.51097305  0.03284034  0.12287621    -0.60370
H1161       H  0.38891252  0.56519683  0.09294016     0.16560
O1162       O  0.37961716  0.60388011  0.13197417    -0.60470
H1163       H  0.38579380  0.62900665  0.12021200     0.43560
H1164       H  0.53978432  0.05865845  0.11536277     0.43510
C1165       C  0.40545829  0.87081826  0.12753920    -0.05550
C1166       C  0.40691628  0.83466054  0.11262164    -0.32980
C1167       C  0.40132347  0.83551408  0.08767165     0.36270
C1168       C  0.39070106  0.87064135  0.07707286    -0.05910
C1169       C  0.38877062  0.90604690  0.09201118    -0.32880
C1170       C  0.39767147  0.90744287  0.11669781     0.36180
H1171       H  0.41164463  0.80536022  0.12027407     0.16550
O1172       O  0.40716388  0.80239644  0.07377373    -0.60370
H1173       H  0.38309679  0.93486946  0.08446468     0.16560
O1174       O  0.39825078  0.94483914  0.13039901    -0.60470
H1175       H  0.36401920  0.93969197  0.12747739     0.43560
H1176       H  0.37298101  0.77281722  0.07019569     0.43510
C1177       C  0.17023323  0.62014759  0.13065079    -0.05550
C1178       C  0.14178001  0.57059525  0.12125481    -0.32980
C1179       C  0.13690631  0.55870900  0.09721678     0.36270
C1180       C  0.14829909  0.59657865  0.08120686    -0.05910
C1181       C  0.18022588  0.64647561  0.09002312    -0.32880
C1182       C  0.19387025  0.65806480  0.11468215     0.36180
H1183       H  0.12135139  0.54030967  0.13220857     0.16550
O1184       O  0.11526174  0.50913382  0.08931014    -0.60370
H1185       H  0.19181273  0.67642948  0.07821600     0.16560
O1186       O  0.22781966  0.70661168  0.12309305    -0.60470
H1187       H  0.21300118  0.72695880  0.11754049     0.43560
H1188       H  0.08215422  0.49130779  0.09556689     0.43510
C1189       C  0.16737375  0.77074208  0.16763507    -0.05550
C1190       C  0.13620378  0.73465657  0.14926083    -0.32980
C1191       C  0.13346914  0.68827290  0.14705959     0.36270
C1192       C  0.16719644  0.67932861  0.16140834    -0.05910
C1193       C  0.20051766  0.71690533  0.17898598    -0.32880
C1194       C  0.19815331  0.76045505  0.18331275     0.36180
H1195       H  0.11326172  0.74225663  0.13657541     0.16550
O1196       O  0.09994722  0.65307373  0.12970142    -0.60370
H1197       H  0.22920437  0.71344919  0.18929460     0.16560
O1198       O  0.22542390  0.79255674  0.20291842    -0.60470
H1199       H  0.26013757  0.79883238  0.20315058     0.43560
H1200       H  0.06658272  0.64748905  0.13270797     0.43510
C1201       C  0.16874871  0.55356807  0.17202992    -0.05550
C1202       C  0.14223167  0.01617836  0.18739350    -0.32980
C1203       C  0.14541198  0.97255922  0.18821788     0.36270
C1204       C  0.17031596  0.96193213  0.17138011    -0.05910
C1205       C  0.19754229  0.99941390  0.15619561    -0.32880
C1206       C  0.20040341  0.54623698  0.15792576     0.36180
H1207       H  0.12030332  0.02162589  0.19972071     0.16550
O1208       O  0.12655320  0.94181843  0.20630489    -0.60370
H1209       H  0.21834986  0.99319419  0.14349736     0.16560
O1210       O  0.23469574  0.58442607  0.14602698    -0.60470
H1211       H  0.26743333  0.59713783  0.15569448     0.43560
H1212       H  0.09200936  0.93542627  0.20709277     0.43510
C1213       C  0.99166582  0.67186539  0.17399010    -0.05550
C1214       C  0.99315351  0.70257126  0.15575023    -0.32980
C1215       C  0.03479532  0.75028483  0.15426813     0.36270
C1216       C  0.07551115  0.77025329  0.17207681    -0.05910
C1217       C  0.07329718  0.74077394  0.19105748    -0.32880
C1218       C  0.03305382  0.69144254  0.19157626     0.36180
H1219       H  0.96271960  0.68878540  0.14173299     0.16550
O1220       O  0.03703992  0.77563628  0.13447694    -0.60370
H1221       H  0.10457330  0.75508144  0.20479690     0.16560
O1222       O  0.03612689  0.66217388  0.20858957    -0.60470
H1223       H  0.04703544  0.64099003  0.20064803     0.43560
H1224       H  0.00820563  0.78128780  0.13399412     0.43510
C1225       C  0.26499900  0.96029409  0.17352616    -0.05550
C1226       C  0.27829833  0.99206264  0.19399543    -0.32980
C1227       C  0.32557904  0.03577159  0.19824590     0.36270
C1228       C  0.36442460  0.54640838  0.18348408    -0.05910
C1229       C  0.35067884  0.01104232  0.16394015    -0.32880
C1230       C  0.30090109  0.97279094  0.15754047     0.36180
H1231       H  0.25121476  0.98378360  0.20655442     0.16550
O1232       O  0.33217632  0.06793850  0.21686764    -0.60370
H1233       H  0.37743096  0.51073943  0.15340006     0.16560
O1234       O  0.28844210  0.94565453  0.13617277    -0.60470
H1235       H  0.27920283  0.96431843  0.12484677     0.43560
H1236       H  0.31858461  0.08860941  0.21027143     0.43510
C1237       C  0.07300810  0.86505816  0.16807446    -0.05550
C1238       C  0.04077195  0.83886481  0.18480209    -0.32980
C1239       C  0.99224647  0.83067497  0.18356284     0.36270
C1240       C  0.97635072  0.85666098  0.16790151    -0.05910
C1241       C  0.00999771  0.88566297  0.15173273    -0.32880
C1242       C  0.05672956  0.88793443  0.15097491     0.36180
H1243       H  0.05238921  0.82214315  0.19860287     0.16550
O1244       O  0.45993510  0.79440652  0.19697420    -0.60370
H1245       H  0.00070348  0.90689098  0.13962677     0.16560
O1246       O  0.08548961  0.91126769  0.13313946    -0.60470
H1247       H  0.09294701  0.94644884  0.13460392     0.43560
H1248       H  0.47425091  0.80579322  0.21372461     0.43510
C1249       C  0.26115404  0.86372195  0.16562366    -0.05550
C1250       C  0.30394673  0.88920569  0.18220425    -0.32980
C1251       C  0.34896203  0.89156683  0.17809360     0.36270
C1252       C  0.34998773  0.86153973  0.15924878    -0.05910
C1253       C  0.30612169  0.83380151  0.14344931    -0.32880
C1254       C  0.26354832  0.83750413  0.14562175     0.36180
H1255       H  0.30342772  0.91017004  0.19758562     0.16550
O1256       O  0.39212144  0.92576446  0.19167998    -0.60370
H1257       H  0.30598205  0.81178612  0.12831885     0.16560
O1258       O  0.22477845  0.81629859  0.12776912    -0.60470
H1259       H  0.23189078  0.84320183  0.11693074     0.43560
H1260       H  0.40698670  0.95605333  0.18262114     0.43510
C1261       C  0.40874159  0.84248246  0.19450380    -0.05550
C1262       C  0.36883580  0.79402535  0.19592951    -0.32980
C1263       C  0.35897015  0.77328858  0.21768272     0.36270
C1264       C  0.38387863  0.80220705  0.23916805    -0.05910
C1265       C  0.42196639  0.85236535  0.23787732    -0.32880
C1266       C  0.43578206  0.87194398  0.21574665     0.36180
H1267       H  0.34931501  0.76999475  0.17987858     0.16550
O1268       O  0.32779531  0.72310596  0.21744685    -0.60370
H1269       H  0.44313583  0.87542773  0.25393570     0.16560
O1270       O  0.47755991  0.91831782  0.21490909    -0.60470
H1271       H  0.46973565  0.94263902  0.22222512     0.43560
H1272       H  0.34981578  0.70852937  0.21686993     0.43510
C1273       C  0.19178461  0.65094816  0.24777164    -0.05550
C1274       C  0.23047064  0.65871214  0.23442147    -0.32980
C1275       C  0.22101140  0.63922122  0.21129114     0.36270
C1276       C  0.17346875  0.62049750  0.19924049    -0.05910
C1277       C  0.13426784  0.61726011  0.21146946    -0.32880
C1278       C  0.14296506  0.63084725  0.23610912     0.36180
H1279       H  0.26750247  0.67378593  0.24324539     0.16550
O1280       O  0.25755192  0.63520646  0.20099873    -0.60370
H1281       H  0.09681253  0.60091083  0.20236398     0.16560
O1282       O  0.10352891  0.62066270  0.24868123    -0.60470
H1283       H  0.10032970  0.65096995  0.24817071     0.43560
H1284       H  0.26564341  0.65670375  0.18747966     0.43510
C1285       C  0.43376722  0.65207489  0.25967221    -0.05550
C1286       C  0.42959100  0.67914690  0.24100602    -0.32980
C1287       C  0.42763517  0.66318454  0.21751185     0.36270
C1288       C  0.43050040  0.61990460  0.21255955    -0.05910
C1289       C  0.43925864  0.59559730  0.23135384    -0.32880
C1290       C  0.44088039  0.61147333  0.25483738     0.36180
H1291       H  0.42314658  0.70992575  0.24453414     0.16550
O1292       O  0.41847534  0.68733298  0.19955051    -0.60370
H1293       H  0.44141828  0.56221907  0.22770597     0.16560
O1294       O  0.44454109  0.58421208  0.27276200    -0.60470
H1295       H  0.48084122  0.60114832  0.27836574     0.43560
H1296       H  0.38245681  0.66569808  0.19369878     0.43510
C1297       C  0.48674026  0.75680069  0.46712277    -0.05550
C1298       C  0.51893958  0.74680039  0.45470957    -0.32980
C1299       C  0.51787490  0.74893590  0.42996809     0.36270
C1300       C  0.49042031  0.76841545  0.41823779    -0.05910
C1301       C  0.47118399  0.79144254  0.43209130    -0.32880
C1302       C  0.45943461  0.77548860  0.45450101     0.36180
H1303       H  0.54049045  0.73219834  0.46373043     0.16550
O1304       O  0.53819023  0.72659086  0.41736182    -0.60370
H1305       H  0.45242723  0.80911027  0.42350379     0.16560
O1306       O  0.41959663  0.77576292  0.46316297    -0.60470
H1307       H  0.38996275  0.74260454  0.45771176     0.43560
H1308       H  0.57405328  0.75253858  0.41748130     0.43510
C1309       C  0.24066909  0.53332625  0.46938787    -0.05550
C1310       C  0.21360846  0.50536607  0.44824686    -0.32980
C1311       C  0.22524737  0.52719332  0.42681231     0.36270
C1312       C  0.26394956  0.57769039  0.42671332    -0.05910
C1313       C  0.28664518  0.60665323  0.44826537    -0.32880
C1314       C  0.27537592  0.58467651  0.46952713     0.36180
H1315       H  0.18576982  0.46595333  0.44832022     0.16550
O1316       O  0.19968057  0.49846124  0.40620190    -0.60370
H1317       H  0.31413014  0.64622223  0.44868394     0.16560
O1318       O  0.29874253  0.61330431  0.49043280    -0.60470
H1319       H  0.33049266  0.61297377  0.49346806     0.43560
H1320       H  0.17127403  0.50434907  0.40263873     0.43510
C1321       C  0.21056326  0.71361865  0.41487400    -0.05550
C1322       C  0.21779597  0.76092649  0.42178239    -0.32980
C1323       C  0.22120389  0.77589161  0.44585224     0.36270
C1324       C  0.22085742  0.74483464  0.46396648    -0.05910
C1325       C  0.20972614  0.69608861  0.45682228    -0.32880
C1326       C  0.20239098  0.67998966  0.43267936     0.36180
H1327       H  0.22506267  0.78802992  0.40870548     0.16550
O1328       O  0.22956481  0.82302190  0.45158069    -0.60370
H1329       H  0.20892029  0.67094252  0.46993804     0.16560
O1330       O  0.19131829  0.63212853  0.42667927    -0.60470
H1331       H  0.22429259  0.63486098  0.42628664     0.43560
H1332       H  0.19686171  0.81780883  0.45559616     0.43510
Zr1333     Zr  0.83946516  0.21271686  0.37824615     2.17510
O1334       O  0.87332787  0.28951721  0.40384262    -0.51410
O1335       O  0.80635839  0.14941616  0.40588402    -0.74620
O1336       O  0.77762144  0.21580560  0.39910034    -0.81400
O1337       O  0.97213718  0.24486750  0.37593662    -0.83150
O1338       O  0.71091036  0.19685870  0.37223257    -0.78770
O1339       O  0.91081639  0.21814902  0.40010489    -0.90410
O1340       O  0.76840103  0.07318943  0.38563826    -0.76370
O1341       O  0.76272018  0.14527483  0.36027596    -0.85860
O1342       O  0.86122441  0.15403064  0.36402873    -0.85550
O1343       O  0.81051825  0.25100821  0.35000510    -0.72310
O1344       O  0.90315302  0.25930038  0.35314377    -0.84440
Zr1345     Zr  0.81505582  0.16464319  0.28989907     2.26420
Zr1346     Zr  0.73266071  0.18234401  0.33196524     2.06270
Zr1347     Zr  0.92313215  0.19914822  0.33803974     2.10050
Zr1348     Zr  0.78470603  0.08726138  0.34518741     1.78760
O1349       O  0.01290006  0.24873671  0.33517427    -0.93250
O1350       O  0.69766818  0.01982823  0.34348952    -0.41060
O1351       O  0.84664818  0.12950681  0.31878019    -0.77690
O1352       O  0.75193034  0.12089661  0.31669566    -0.96370
O1353       O  0.79474206  0.22427460  0.30478765    -0.89680
O1354       O  0.89239744  0.23341242  0.30795183    -0.92520
C1355       C  0.78050139  0.10145841  0.40463606     1.01230
C1356       C  0.95683396  0.24199748  0.39650189     1.14160
C1357       C  0.73360176  0.20830247  0.39369378     1.04940
O1358       O  0.64816173  0.11038007  0.33051845    -0.94680
O1359       O  0.69917759  0.17441610  0.28986562    -0.90420
O1360       O  0.72648936  0.12456488  0.27735164    -0.83560
C1361       C  0.70394936  0.14877694  0.27320242     1.11580
O1362       O  0.89952142  0.36289898  0.35195763    -0.96650
Zr1363     Zr  0.87197351  0.29245565  0.32281937     1.88940
O1364       O  0.84902466  0.23118233  0.26245754    -0.73300
O1365       O  0.70043609  0.23964450  0.32876684    -0.52560
O1366       O  0.82866270  0.33737247  0.31129713    -0.97240
O1367       O  0.96076735  0.35391396  0.32254295    -0.54460
O1368       O  0.88346131  0.30837986  0.28130958    -0.73810
C1369       C  0.87146175  0.27930080  0.26246784     0.98530
O1370       O  0.79041940  0.11311304  0.25276657    -0.62640
O1371       O  0.93823130  0.13174408  0.34886612    -0.57440
O1372       O  0.86860567  0.13063437  0.28310195    -0.94120
O1373       O  0.94582359  0.18830102  0.29906381    -0.92550
O1374       O  0.82567924  0.04143139  0.35895980    -0.92900
O1375       O  0.76307457  0.01966436  0.31535646    -0.91690
C1376       C  0.91572906  0.15714961  0.28202387     1.17370
H1377       H  0.87377364  0.14098953  0.37638641     0.33320
H1378       H  0.72106788  0.09061950  0.31085049     0.44170
H1379       H  0.91657327  0.24861349  0.29671548     0.37690
H1380       H  0.80459065  0.27513116  0.35800269     0.34170
H1381       H  0.69880440  0.99415415  0.35318159     0.25960
H1382       H  0.66694034  0.22140958  0.33450080     0.31900
H1383       H  0.85325779  0.36663329  0.30347526     0.37810
H1384       H  0.79832135  0.00970062  0.36396350     0.32270
H1385       H  0.95573272  0.12790644  0.33589729     0.31140
H1386       H  0.02606031  0.22654688  0.33987692     0.32830
H1387       H  0.96172244  0.37809551  0.31118874     0.31790
H1388       H  0.76176004  0.03385068  0.30006201     0.35790
H1389       H  0.82001112  0.13062545  0.24395756     0.28520
H1390       H  0.86244521  0.27882353  0.41962355     0.32760
H1391       H  0.91097573  0.39290506  0.34280530     0.35610
H1392       H  0.96418484  0.14644204  0.36266014     0.28220
H1393       H  0.78834410  0.08110569  0.25662787     0.41090
H1394       H  0.64703104  0.09678898  0.34619107     0.31150
H1395       H  0.68141284  0.03375879  0.35292496     0.38760
H1396       H  0.97486185  0.33573438  0.31458425     0.30610
H1397       H  0.72128332  0.26718744  0.34112354     0.30680
H1398       H  0.85470311  0.30619778  0.39816106     0.30940
C1399       C  0.71429162  0.36548182  0.16866602     0.02200
C1400       C  0.71521875  0.41208557  0.17018897     0.02200
C1401       C  0.66921348  0.41254186  0.16997771     0.02200
C1402       C  0.62239787  0.36599404  0.16881242     0.02200
C1403       C  0.62271920  0.31981701  0.17004353     0.02200
C1404       C  0.66838568  0.31978528  0.16933357     0.02200
C1405       C  0.66703753  0.10175709  0.17421415     0.00480
C1406       C  0.66987549  0.13260376  0.15634389     0.00480
C1407       C  0.92758593  0.35644180  0.17074149     0.00480
C1408       C  0.89778040  0.36370308  0.15345085     0.00480
C1409       C  0.91656649  0.09484966  0.18822957     0.00480
C1410       C  0.94968594  0.11774005  0.17159896     0.00480
C1411       C  0.97931965  0.24296432  0.49224401     0.00480
C1412       C  0.97717289  0.27383899  0.50951299     0.00480
C1413       C  0.74015028  0.00819057  0.49071954     0.00480
C1414       C  0.70724023  0.49945481  0.50712078     0.00480
C1415       C  0.51997105  0.00706032  0.49862349     0.02200
C1416       C  0.97421092  0.46010879  0.49777773     0.02200
C1417       C  0.92748931  0.45895313  0.49710173     0.02200
C1418       C  0.92700756  0.00480874  0.49829567     0.02200
C1419       C  0.97280438  0.05170397  0.49961273     0.02200
C1420       C  0.51920725  0.05272001  0.49939920     0.02200
C1421       C  0.73793081  0.26600297  0.48983418     0.00480
C1422       C  0.71161257  0.24011954  0.50836065     0.00480
Zr1423     Zr  0.94952242  0.03289771  0.95883010     2.17510
O1424       O  0.90524456  0.06960120  0.93661730    -0.51410
O1425       O  0.47284429  0.00469514  0.92373005    -0.74620
O1426       O  0.50548260  0.11863555  0.95217539    -0.81400
O1427       O  0.83073796  0.40448317  0.95689638    -0.83150
O1428       O  0.58212751  0.13161802  0.96269532    -0.78770
O1429       O  0.85922648  0.98506082  0.95527656    -0.90410
O1430       O  0.51936491  0.46957371  0.93549808    -0.76370
O1431       O  0.52908249  0.03972714  0.96924821    -0.85860
O1432       O  0.93344114  0.44992046  0.96575073    -0.85550
O1433       O  0.48913446  0.09309874  0.99274094    -0.72310
O1434       O  0.89515602  0.00314791  0.98947135    -0.84440
Zr1435     Zr  0.49490957  0.98691278  0.03970427     2.26420
Zr1436     Zr  0.56893115  0.09900017  0.00300085     2.06270
Zr1437     Zr  0.87789815  0.41953249  0.99668856     2.10050
Zr1438     Zr  0.51302756  0.95791320  0.97650310     1.78760
O1439       O  0.79201726  0.39599799  0.00208755    -0.93250
O1440       O  0.60110537  0.98950284  0.97177700    -0.41060
O1441       O  0.95794303  0.42693219  0.00658119    -0.77690
O1442       O  0.55225391  0.01601322  0.01036223    -0.96370
O1443       O  0.51359091  0.07001053  0.03321817    -0.89680
O1444       O  0.91563639  0.98029455  0.02998260    -0.92520
C1445       C  0.50063165  0.98614341  0.91977864     1.01230
C1446       C  0.83545480  0.44130963  0.94513986     1.14160
C1447       C  0.54994399  0.13421915  0.94767900     1.04940
O1448       O  0.65641652  0.13163105  0.99688473    -0.94680
O1449       O  0.62194784  0.10910302  0.04092332    -0.90420
O1450       O  0.57186814  0.04281903  0.06102650    -0.83560
C1451       C  0.61302537  0.08264783  0.05918511     1.11580
O1452       O  0.89566050  0.10325881  0.00041194    -0.96650
Zr1453     Zr  0.93449368  0.06284216  0.02268628     1.88940
O1454       O  0.97257744  0.01042867  0.07614882    -0.73300
O1455       O  0.58891917  0.18371227  0.01509970    -0.52560
O1456       O  0.97935854  0.15031269  0.03828301    -0.97240
O1457       O  0.85215301  0.03945050  0.03441284    -0.54460
O1458       O  0.94204717  0.06062420  0.06465766    -0.73810
C1459       C  0.95489746  0.03927716  0.08042255     0.98530
O1460       O  0.54065678  0.44580078  0.05441673    -0.62640
O1461       O  0.85471881  0.33287424  0.98716293    -0.57440
O1462       O  0.94506253  0.40149510  0.04832270    -0.94120
O1463       O  0.86715874  0.38457916  0.03687728    -0.92550
O1464       O  0.47290595  0.37543160  0.95534053    -0.92900
O1465       O  0.54096468  0.40482088  0.99530741    -0.91690
C1466       C  0.89991267  0.38336960  0.05219702     1.17370
H1467       H  0.91847870  0.42804128  0.95142137     0.33320
H1468       H  0.58310716  0.01718749  0.01597852     0.44170
H1469       H  0.89527138  0.97015121  0.04294123     0.37690
H1470       H  0.49374713  0.12597191  0.99047236     0.34170
H1471       H  0.60063611  0.96706113  0.95892455     0.25960
H1472       H  0.62255923  0.19915454  0.02415857     0.31900
H1473       H  0.95845329  0.15221834  0.05004640     0.37810
H1474       H  0.49965628  0.37516848  0.94708175     0.32270
H1475       H  0.81942485  0.31644598  0.97998473     0.31140
H1476       H  0.77446012  0.35914277  0.00288248     0.32830
H1477       H  0.85869298  0.06568515  0.04681239     0.31790
H1478       H  0.56987569  0.42767148  0.00688272     0.35790
H1479       H  0.52604123  0.41331648  0.04496590     0.28520
H1480       H  0.92785310  0.10620514  0.93646704     0.32760
H1481       H  0.89414073  0.12667713  0.01202614     0.35610
H1482       H  0.87391611  0.33453623  0.97381291     0.28220
H1483       H  0.57416604  0.96518906  0.04887777     0.41090
H1484       H  0.65936305  0.10141209  0.99462888     0.31150
H1485       H  0.61241339  0.02195409  0.96470507     0.38760
H1486       H  0.84197958  0.00884506  0.04298310     0.30610
H1487       H  0.59473551  0.20108479  0.00028436     0.30680
H1488       H  0.87953584  0.06762629  0.94645620     0.30940
Zr1489     Zr  0.65633519  0.36619083  0.71050474     2.17510
O1490       O  0.68771374  0.41283886  0.74907816    -0.51410
O1491       O  0.62934790  0.30689254  0.74046124    -0.74620
O1492       O  0.61060414  0.40597980  0.72155207    -0.81400
O1493       O  0.76630578  0.35057363  0.71046533    -0.83150
O1494       O  0.53196965  0.35724936  0.70334517    -0.78770
O1495       O  0.74608713  0.40853993  0.71831131    -0.90410
O1496       O  0.58466695  0.22754881  0.72355281    -0.76370
O1497       O  0.57419471  0.30180493  0.69511977    -0.85860
O1498       O  0.66601267  0.29782785  0.69704026    -0.85550
O1499       O  0.62998341  0.40448264  0.68059159    -0.72310
O1500       O  0.71904241  0.39832096  0.68349241    -0.84440
Zr1501     Zr  0.62030002  0.30654144  0.62249300     2.26420
Zr1502     Zr  0.54771817  0.33802492  0.66432747     2.06270
Zr1503     Zr  0.72701913  0.32896616  0.66855020     2.10050
Zr1504     Zr  0.58435722  0.23491474  0.68100563     1.78760
O1505       O  0.81611323  0.38679824  0.66708148    -0.93250
O1506       O  0.49603916  0.18628097  0.68718738    -0.41060
O1507       O  0.64386604  0.26675597  0.65246642    -0.77690
O1508       O  0.55776902  0.26997553  0.64973856    -0.96370
O1509       O  0.61118660  0.37310580  0.63779075    -0.89680
O1510       O  0.70252847  0.36862578  0.63935030    -0.92520
C1511       C  0.60377623  0.25937663  0.74166924     1.01230
C1512       C  0.76654743  0.38346347  0.72494507     1.14160
C1513       C  0.56321647  0.38610251  0.72072683     1.04940
O1514       O  0.95905057  0.28366812  0.66849868    -0.94680
O1515       O  0.49668034  0.30556678  0.62564254    -0.90420
O1516       O  0.57140698  0.34582589  0.61555324    -0.83560
C1517       C  0.52507813  0.31819459  0.60919845     1.11580
O1518       O  0.72727800  0.50711158  0.68301999    -0.96650
Zr1519     Zr  0.69242748  0.43543701  0.65388654     1.88940
O1520       O  0.66554198  0.36395668  0.59314808    -0.73300
O1521       O  0.53394242  0.40709330  0.65538080    -0.52560
O1522       O  0.65814709  0.48688346  0.63953261    -0.97240
O1523       O  0.78114758  0.49419068  0.65175259    -0.54460
O1524       O  0.70124386  0.44127666  0.61249656    -0.73810
C1525       C  0.69078286  0.41226678  0.59390788     0.98530
O1526       O  0.55569407  0.23734776  0.59543718    -0.62640
O1527       O  0.74145437  0.25910255  0.67330997    -0.57440
O1528       O  0.66015944  0.26013634  0.61318659    -0.94120
O1529       O  0.74028049  0.31035731  0.62646049    -0.92550
O1530       O  0.61526339  0.17788468  0.68958257    -0.92900
O1531       O  0.54095338  0.15835289  0.65484669    -0.91690
C1532       C  0.70580408  0.28282193  0.60929349     1.17370
H1533       H  0.67724012  0.28496154  0.70999679     0.33320
H1534       H  0.52623996  0.24375720  0.64176350     0.44170
H1535       H  0.72714301  0.38084354  0.62820530     0.37690
H1536       H  0.62845076  0.43372887  0.68554322     0.34170
H1537       H  0.49268851  0.15673235  0.69511666     0.25960
H1538       H  0.49700321  0.39135874  0.65262949     0.31900
H1539       H  0.68521965  0.51376766  0.63157924     0.37810
H1540       H  0.59018250  0.15235339  0.69890005     0.32270
H1541       H  0.77746642  0.27505158  0.67922513     0.31140
H1542       H  0.82934128  0.36534633  0.66188747     0.32830
H1543       H  0.78179873  0.51809723  0.64029899     0.31790
H1544       H  0.54844495  0.16983922  0.63880804     0.35790
H1545       H  0.56165390  0.20915290  0.59808565     0.28520
H1546       H  0.65908870  0.39902932  0.75868585     0.32760
H1547       H  0.73354513  0.53622450  0.67389696     0.35610
H1548       H  0.72366393  0.24269796  0.68703287     0.28220
H1549       H  0.52354237  0.22645567  0.60197648     0.41750
H1550       H  0.95728120  0.25473849  0.67641618     0.31150
H1551       H  0.49177613  0.20636835  0.69961364     0.38760
H1552       H  0.79321201  0.47449655  0.64342658     0.30610
H1553       H  0.54343464  0.42764075  0.67056471     0.30680
H1554       H  0.69485742  0.44718623  0.74623136     0.30940
C1555       C  0.81006384  0.41409945  0.84360394     0.00480
C1556       C  0.80158375  0.43890109  0.82481837     0.00480
C1557       C  0.76515876  0.18230912  0.83095389     0.02200
C1558       C  0.81313596  0.22694463  0.83182216     0.02200
C1559       C  0.85816243  0.22529474  0.83298317     0.02200
C1560       C  0.85589323  0.17838274  0.83308866     0.02200
C1561       C  0.80778153  0.13319367  0.82949965     0.02200
C1562       C  0.76176446  0.13445758  0.82790561     0.02200
C1563       C  0.58540309  0.19001257  0.85174465     0.00480
C1564       C  0.55183922  0.19083522  0.83417517     0.00480
C1565       C  0.55780147  0.46348248  0.82827561     0.00480
C1566       C  0.52844382  0.42001007  0.81379719     0.00480
C1567       C  0.90422199  0.17698041  0.83524264    -0.05550
C1568       C  0.91493436  0.15467132  0.81668817    -0.32980
C1569       C  0.96018718  0.15450655  0.81768770     0.36270
C1570       C  0.99900008  0.18103359  0.83658320    -0.05910
C1571       C  0.98765323  0.20239443  0.85554958    -0.32880
C1572       C  0.93998810  0.19807853  0.85546236     0.36180
H1573       H  0.88785862  0.13698178  0.80119647     0.16550
O1574       O  0.96615687  0.12863520  0.79959858    -0.60370
H1575       H  0.01567133  0.22294091  0.87040008     0.16560
O1576       O  0.92847996  0.21408258  0.87536927    -0.60470
H1577       H  0.91938638  0.18680043  0.88617578     0.43560
H1578       H  0.95661016  0.09534884  0.80543905     0.43510
C1579       C  0.63259433  0.18953129  0.84647243    -0.05550
C1580       C  0.66551093  0.22214262  0.83115512    -0.32980
C1581       C  0.70447288  0.21631237  0.82391845     0.36270
C1582       C  0.71953655  0.18569803  0.83597381    -0.05910
C1583       C  0.68992603  0.15691576  0.85325937    -0.32880
C1584       C  0.64534496  0.15573325  0.85718399     0.36180
H1585       H  0.66048541  0.25121776  0.82374075     0.16550
O1586       O  0.72538415  0.23866096  0.80416064    -0.60370
H1587       H  0.69989298  0.13287322  0.86294486     0.16560
O1588       O  0.61445805  0.12075317  0.87147783    -0.60470
H1589       H  0.58842544  0.09264236  0.86048691     0.43560
H1590       H  0.69959418  0.21946159  0.79062857     0.43510
C1591       C  0.71005556  0.08622658  0.82407620    -0.05550
C1592       C  0.69940420  0.04383603  0.83676671    -0.32980
C1593       C  0.65181981  0.00029115  0.83411015     0.36270
C1594       C  0.61030308  0.00158198  0.82296641    -0.05910
C1595       C  0.61989106  0.04325941  0.81019219    -0.32880
C1596       C  0.66951753  0.08309297  0.80898834     0.36180
H1597       H  0.72716192  0.04428796  0.84957307     0.16550
O1598       O  0.64504283  0.45905230  0.84554373    -0.60370
H1599       H  0.58904712  0.04581879  0.80155739     0.16560
O1600       O  0.67824371  0.11905417  0.79328308    -0.60470
H1601       H  0.65159971  0.12770196  0.79411468     0.43560
H1602       H  0.64557555  0.43620446  0.83319060     0.43510
C1603       C  0.98355237  0.37099516  0.82030773    -0.05550
C1604       C  0.97835596  0.35555488  0.84362686    -0.32980
C1605       C  0.93762455  0.30874317  0.84859223     0.36270
C1606       C  0.90630479  0.27278976  0.82987264    -0.05910
C1607       C  0.91455217  0.28620362  0.80676821    -0.32880
C1608       C  0.94787683  0.33556406  0.80211100     0.36180
H1609       H  0.00475221  0.37983970  0.85824643     0.16550
O1610       O  0.92688975  0.29969469  0.87151986    -0.60370
H1611       H  0.89016011  0.25970001  0.79215068     0.16560
O1612       O  0.94398619  0.34863156  0.77948988    -0.60470
H1613       H  0.92569641  0.36722305  0.78017269     0.43560
H1614       H  0.95885527  0.30831273  0.88102111     0.43510
C1615       C  0.80606293  0.08428949  0.82832013    -0.05550
C1616       C  0.78600671  0.05229264  0.80775250    -0.32980
C1617       C  0.78098362  0.00447110  0.80697311     0.36270
C1618       C  0.79784127  0.98730360  0.82702300    -0.05910
C1619       C  0.81339909  0.01943912  0.84804378    -0.32880
C1620       C  0.81924016  0.06724929  0.84862627     0.36180
H1621       H  0.77280957  0.06393807  0.79227469     0.16550
O1622       O  0.75571426  0.97367910  0.78690249    -0.60370
H1623       H  0.81964449  0.00946195  0.86500613     0.16560
O1624       O  0.83529701  0.09613334  0.86970078    -0.60470
H1625       H  0.80457858  0.08605285  0.87754622     0.43560
H1626       H  0.77568358  0.99083194  0.77380165     0.43510
C1627       C  0.81748959  0.27680225  0.83439226    -0.05550
C1628       C  0.81730134  0.29485488  0.85683487    -0.32980
C1629       C  0.82005133  0.34092751  0.86061773     0.36270
C1630       C  0.81980142  0.36963270  0.84107894    -0.05910
C1631       C  0.83039342  0.35482488  0.81958951    -0.32880
C1632       C  0.82615646  0.30809091  0.81560611     0.36180
H1633       H  0.81612718  0.27334879  0.87181364     0.16550
O1634       O  0.82971773  0.35954467  0.88374850    -0.60370
H1635       H  0.84424079  0.37929338  0.80565024     0.16560
O1636       O  0.83069821  0.29432287  0.79316874    -0.60470
H1637       H  0.80396927  0.25898350  0.78915467     0.43560
H1638       H  0.80229339  0.33407014  0.89216825     0.43510
C1639       C  0.78393340  0.38955165  0.75061349    -0.05550
C1640       C  0.74907065  0.35896719  0.76583838    -0.32980
C1641       C  0.75460948  0.37409782  0.78994892     0.36270
C1642       C  0.79695853  0.41950186  0.79965040    -0.05910
C1643       C  0.83387814  0.44827824  0.78476796    -0.32880
C1644       C  0.82718147  0.43392775  0.76044731     0.36180
H1645       H  0.71535780  0.32502505  0.75862898     0.16550
O1646       O  0.71775226  0.34507805  0.80374557    -0.60370
H1647       H  0.86667530  0.48328780  0.79185158     0.16560
O1648       O  0.86133425  0.46538485  0.74611563    -0.60470
H1649       H  0.88585950  0.45384655  0.74552513     0.43560
H1650       H  0.69805418  0.36204555  0.80518829     0.43510
C1651       C  0.59461843  0.24127688  0.76567576    -0.05550
C1652       C  0.59814740  0.27438431  0.78412995    -0.32980
C1653       C  0.58312761  0.25757470  0.80609361     0.36270
C1654       C  0.56843443  0.20797572  0.81076885    -0.05910
C1655       C  0.56903490  0.17566531  0.79320148    -0.32880
C1656       C  0.58099832  0.19170937  0.77056273     0.36180
H1657       H  0.61146016  0.31343354  0.78150182     0.16550
O1658       O  0.58486323  0.29045118  0.82330202    -0.60370
H1659       H  0.55873991  0.13763777  0.79689159     0.16560
O1660       O  0.57926380  0.15873050  0.75345905    -0.60470
H1661       H  0.61348489  0.16346816  0.75487579     0.43560
H1662       H  0.55103498  0.28668470  0.82153992     0.43510
C1663       C  0.54576613  0.39164198  0.74278948    -0.05550
C1664       C  0.53927599  0.43218529  0.74810636    -0.32980
C1665       C  0.53519791  0.44361249  0.77157577     0.36270
C1666       C  0.54281912  0.41711648  0.78987979    -0.05910
C1667       C  0.55078140  0.37754496  0.78418496    -0.32880
C1668       C  0.54847753  0.36271563  0.76070238     0.36180
H1669       H  0.53658171  0.45417569  0.73411452     0.16550
O1670       O  0.51833462  0.47607872  0.77626276    -0.60370
H1671       H  0.55377162  0.35511565  0.79787284     0.16560
O1672       O  0.54914724  0.31978101  0.75513003    -0.60470
H1673       H  0.01356786  0.29246103  0.75383444     0.43560
H1674       H  0.53688380  0.00556002  0.76697820     0.43510
C1675       C  0.82322060  0.43674746  0.91894783    -0.05550
C1676       C  0.86177245  0.46891500  0.90584227    -0.32980
C1677       C  0.85676461  0.46401222  0.88122069     0.36270
C1678       C  0.81050705  0.42917916  0.86873867    -0.05910
C1679       C  0.76913967  0.40080989  0.88158994    -0.32880
C1680       C  0.77580312  0.40334640  0.90665936     0.36180
H1681       H  0.89672137  0.49722017  0.91481181     0.16550
O1682       O  0.89684829  0.49386705  0.86914438    -0.60370
H1683       H  0.73340856  0.37304026  0.87222501     0.16560
O1684       O  0.73644404  0.37247039  0.91877544    -0.60470
H1685       H  0.73845972  0.34160348  0.92015228     0.43560
H1686       H  0.90196442  0.52810293  0.87097674     0.43510
C1687       C  0.57436926  0.18195784  0.87676940    -0.05550
C1688       C  0.53046600  0.13950929  0.88134837    -0.32980
C1689       C  0.52247744  0.12531984  0.90429607     0.36270
C1690       C  0.56038068  0.15136171  0.92346707    -0.05910
C1691       C  0.60496906  0.19420796  0.91901498    -0.32880
C1692       C  0.61164719  0.21022933  0.89590855     0.36180
H1693       H  0.50247348  0.11591313  0.86694224     0.16550
O1694       O  0.47766542  0.08411238  0.90756743    -0.60370
H1695       H  0.63410339  0.21556265  0.93339098     0.16560
O1696       O  0.65567819  0.25215833  0.89198477    -0.60470
H1697       H  0.64745804  0.27918514  0.89058182     0.43560
H1698       H  0.45152950  0.09114089  0.90072864     0.43510
C1699       C  0.51478001  0.98525864  0.89590396    -0.05550
C1700       C  0.97902984  0.46558899  0.87615570    -0.32980
C1701       C  0.99288393  0.46198633  0.85360631     0.36270
C1702       C  0.54249166  0.47351840  0.85120029    -0.05910
C1703       C  0.57824629  0.99507363  0.87121223    -0.32880
C1704       C  0.56498970  0.00152125  0.89313631     0.36180
H1705       H  0.94006755  0.45070102  0.87841364     0.16550
O1706       O  0.95816547  0.44763771  0.83409723    -0.60370
H1707       H  0.61707355  0.00683470  0.87059403     0.16560
O1708       O  0.60148807  0.02246647  0.91204103    -0.60470
H1709       H  0.61242500  0.05867000  0.91300700     0.43560
H1710       H  0.93012357  0.41413633  0.83692512     0.43510
C1711       C  0.71457983  0.27839753  0.58351457    -0.05550
C1712       C  0.75788699  0.28064461  0.57574343    -0.32980
C1713       C  0.76036837  0.27117828  0.55120022     0.36270
C1714       C  0.72014824  0.26144780  0.53387785    -0.05910
C1715       C  0.67939002  0.26260383  0.54175265    -0.32880
C1716       C  0.67544737  0.26907964  0.56565805     0.36180
H1717       H  0.78869731  0.28741286  0.58866382     0.16550
O1718       O  0.80133893  0.27023175  0.54455435    -0.60370
H1719       H  0.64826661  0.25609864  0.52902216     0.16560
O1720       O  0.63317734  0.26883016  0.57112806    -0.60470
H1721       H  0.60447443  0.23696518  0.56353959     0.43560
H1722       H  0.79347731  0.23515131  0.54587334     0.43510
C1723       C  0.66351554  0.19017258  0.50399787    -0.05550
C1724       C  0.62478949  0.18212141  0.48645202    -0.32980
C1725       C  0.57849594  0.13696784  0.48405975     0.36270
C1726       C  0.56791602  0.10161263  0.50113404    -0.05910
C1727       C  0.60533248  0.11141779  0.51959968    -0.32880
C1728       C  0.65331273  0.15310650  0.52019020     0.36180
H1729       H  0.63018087  0.21057299  0.47442115     0.16550
O1730       O  0.54496384  0.12628222  0.46438810    -0.60370
H1731       H  0.59785366  0.08535642  0.53320265     0.16560
O1732       O  0.68972874  0.15806775  0.53728530    -0.60470
H1733       H  0.70747127  0.14328844  0.52964840     0.43560
H1734       H  0.53839160  0.15448093  0.46388418     0.43510
C1735       C  0.87880151  0.40933690  0.49553483    -0.05550
C1736       C  0.84368225  0.40013142  0.51170706    -0.32980
C1737       C  0.79669259  0.35607186  0.50924866     0.36270
C1738       C  0.78718549  0.31542815  0.49348129    -0.05910
C1739       C  0.82394678  0.32394226  0.47822036    -0.32880
C1740       C  0.86718132  0.37111149  0.47795704     0.36180
H1741       H  0.85124522  0.42873323  0.52537714     0.16550
O1742       O  0.75960325  0.35569532  0.52079208    -0.60370
H1743       H  0.81794095  0.29463227  0.46529227     0.16560
O1744       O  0.89683168  0.38043086  0.45989374    -0.60470
H1745       H  0.90568483  0.35377783  0.45949125     0.43560
H1746       H  0.73674446  0.35802960  0.50828906     0.43510
C1747       C  0.71763499  0.48217770  0.52947316    -0.05550
C1748       C  0.70868270  0.43325737  0.52969003    -0.32980
C1749       C  0.70390762  0.41094575  0.55096668     0.36270
C1750       C  0.70783647  0.43757633  0.57213177    -0.05910
C1751       C  0.72382003  0.48906191  0.57196600    -0.32880
C1752       C  0.72874446  0.51145389  0.55069704     0.36180
H1753       H  0.70111430  0.41111600  0.51321522     0.16550
O1754       O  0.69365537  0.36264922  0.55078323    -0.60370
H1755       H  0.72861592  0.51121301  0.58804349     0.16560
O1756       O  0.73826368  0.05979986  0.55056201    -0.60470
H1757       H  0.77533002  0.08110888  0.55257184     0.43560
H1758       H  0.65937699  0.34227540  0.54251354     0.43510
C1759       C  0.87792667  0.00358326  0.49749396    -0.05550
C1760       C  0.84125484  0.97784109  0.47825916    -0.32980
C1761       C  0.79465992  0.97498862  0.47717694     0.36270
C1762       C  0.78503051  0.00132980  0.49465940    -0.05910
C1763       C  0.82193840  0.52720916  0.51394701    -0.32880
C1764       C  0.86700771  0.52671054  0.51591694     0.36180
H1765       H  0.84849967  0.95904263  0.46412790     0.16550
O1766       O  0.75826442  0.94537079  0.45921127    -0.60370
H1767       H  0.81647595  0.54893247  0.52729321     0.16560
O1768       O  0.90059100  0.54983373  0.53568820    -0.60470
H1769       H  0.89368622  0.52271933  0.54637160     0.43560
H1770       H  0.77195654  0.95994325  0.44433640     0.43510
C1771       C  0.65947312  0.00334690  0.50449895    -0.05550
C1772       C  0.64994692  0.03049137  0.48708988    -0.32980
C1773       C  0.60450650  0.03062604  0.48427973     0.36270
C1774       C  0.56932964  0.00848545  0.50070850    -0.05910
C1775       C  0.58034167  0.48592348  0.51934734    -0.32880
C1776       C  0.62179358  0.47944153  0.52026988     0.36180
H1777       H  0.67636553  0.05200565  0.47513005     0.16550
O1778       O  0.59357259  0.05019869  0.46476290    -0.60370
H1779       H  0.55405292  0.46914923  0.53235099     0.16560
O1780       O  0.62215831  0.44593408  0.53556726    -0.60470
H1781       H  0.62300563  0.45960578  0.55167113     0.43560
H1782       H  0.62175059  0.08519428  0.46485431     0.43510
C1783       C  0.50958347  0.30048864  0.58379832    -0.05550
C1784       C  0.54675520  0.32407274  0.56841754    -0.32980
C1785       C  0.53774034  0.30910112  0.54459855     0.36270
C1786       C  0.48973582  0.27162363  0.53496424    -0.05910
C1787       C  0.95286244  0.24494609  0.55015115    -0.32880
C1788       C  0.96249311  0.25956168  0.57460725     0.36180
H1789       H  0.58323145  0.35572159  0.57467170     0.16550
O1790       O  0.57450470  0.33577136  0.53026097    -0.60370
H1791       H  0.91564307  0.21592715  0.54281251     0.16560
O1792       O  0.92581033  0.23433451  0.58910549    -0.60470
H1793       H  0.90523526  0.25064980  0.58816644     0.43560
H1794       H  0.58033069  0.31083748  0.52201992     0.43510
C1795       C  0.97165305  0.09973290  0.49978573    -0.05550
C1796       C  0.94376635  0.10661197  0.48112533    -0.32980
C1797       C  0.94288769  0.15113053  0.47999793     0.36270
C1798       C  0.97342382  0.19235851  0.49679832    -0.05910
C1799       C  0.50103576  0.18524328  0.51572047    -0.32880
C1800       C  0.49868434  0.13883286  0.51778402     0.36180
H1801       H  0.92291654  0.07732124  0.46701647     0.16550
O1802       O  0.91402594  0.15468321  0.46135508    -0.60370
H1803       H  0.52599545  0.21564175  0.52862192     0.16560
O1804       O  0.52218964  0.13155585  0.53755901    -0.60470
H1805       H  0.55789719  0.15844304  0.53859681     0.43560
H1806       H  0.89077197  0.16281769  0.46857478     0.43510
C1807       C  0.97606115  0.32136903  0.50531298    -0.05550
C1808       C  0.50789755  0.35724171  0.49064997    -0.32980
C1809       C  0.50280322  0.39882194  0.48559171     0.36270
C1810       C  0.97535681  0.41215149  0.49981611    -0.05910
C1811       C  0.94916099  0.37969086  0.51687481    -0.32880
C1812       C  0.94525971  0.33296083  0.51790395     0.36180
H1813       H  0.53441430  0.35152585  0.48184245     0.16550
O1814       O  0.52282400  0.42504306  0.46633324    -0.60370
H1815       H  0.92895680  0.38922605  0.52861407     0.16560
O1816       O  0.91081525  0.29892549  0.53131048    -0.60470
H1817       H  0.88114110  0.27670850  0.51990954     0.43560
H1818       H  0.55717344  0.43034432  0.46653649     0.43510
C1819       C  0.94636465  0.09178306  0.14890415    -0.05550
C1820       C  0.97807021  0.07206855  0.14658704    -0.32980
C1821       C  0.97927831  0.05136100  0.12465748     0.36270
C1822       C  0.94853797  0.05060264  0.10479442    -0.05910
C1823       C  0.91433583  0.06716364  0.10775393    -0.32880
C1824       C  0.91369663  0.08849039  0.12945024     0.36180
H1825       H  0.00279635  0.07394485  0.16171427     0.16550
O1826       O  0.01097054  0.53286231  0.12288269    -0.60370
H1827       H  0.88889447  0.06515358  0.09293501     0.16560
O1828       O  0.87961970  0.10386613  0.13196387    -0.60470
H1829       H  0.88579977  0.12899172  0.12020081     0.43560
H1830       H  0.03978673  0.55868075  0.11537211     0.43510
C1831       C  0.90548007  0.37083933  0.12755124    -0.05550
C1832       C  0.90694695  0.33468751  0.11263365    -0.32980
C1833       C  0.90136701  0.33555087  0.08768453     0.36270
C1834       C  0.89074689  0.37068051  0.07708751    -0.05910
C1835       C  0.88880651  0.40607942  0.09202587    -0.32880
C1836       C  0.89769633  0.40746695  0.11671192     0.36180
H1837       H  0.91167456  0.30538613  0.12028532     0.16550
O1838       O  0.90722218  0.30244431  0.07378598    -0.60370
H1839       H  0.88313716  0.43490538  0.08448008     0.16560
O1840       O  0.89826898  0.44485797  0.13041439    -0.60470
H1841       H  0.86403629  0.43970755  0.12749150     0.43560
H1842       H  0.87304225  0.27286331  0.07020199     0.43510
C1843       C  0.67019337  0.12012292  0.13062866    -0.05550
C1844       C  0.64175012  0.07056600  0.12123602    -0.32980
C1845       C  0.63687206  0.05867202  0.09719788     0.36270
C1846       C  0.64824904  0.09653312  0.08118489    -0.05910
C1847       C  0.68016470  0.14643464  0.08999738    -0.32880
C1848       C  0.69381486  0.15803543  0.11465562     0.36180
H1849       H  0.62133319  0.04028207  0.13219235     0.16550
O1850       O  0.61524777  0.00909698  0.08929434    -0.60370
H1851       H  0.69174078  0.17638295  0.07818748     0.16560
O1852       O  0.72775746  0.20658816  0.12306133    -0.60470
H1853       H  0.71293536  0.22692871  0.11750288     0.43560
H1854       H  0.58214182  0.99125993  0.09555178     0.43510
C1855       C  0.66736889  0.27073722  0.16762191    -0.05550
C1856       C  0.63619429  0.23465618  0.14924661    -0.32980
C1857       C  0.63345068  0.18826821  0.14704305     0.36270
C1858       C  0.66717795  0.17931807  0.16138823    -0.05910
C1859       C  0.70050750  0.21689302  0.17896459    -0.32880
C1860       C  0.69814687  0.26044279  0.18329641     0.36180
H1861       H  0.61325375  0.24226199  0.13656314     0.16550
O1862       O  0.59992113  0.15307130  0.12968592    -0.60370
H1863       H  0.72919667  0.21343459  0.18926920     0.16560
O1864       O  0.72541891  0.29253673  0.20290416    -0.60470
H1865       H  0.76013069  0.29880691  0.20313644     0.43560
H1866       H  0.56656016  0.14749534  0.13269343     0.43510
C1867       C  0.66873168  0.05356162  0.17201437    -0.05550
C1868       C  0.64224386  0.51618051  0.18740546    -0.32980
C1869       C  0.64541954  0.47255819  0.18822637     0.36270
C1870       C  0.67032355  0.46193360  0.17138762    -0.05910
C1871       C  0.69755370  0.49941966  0.15620573    -0.32880
C1872       C  0.70038707  0.04622981  0.15791113     0.36180
H1873       H  0.62031580  0.52162675  0.19973332     0.16550
O1874       O  0.62655574  0.44181139  0.20631085    -0.60370
H1875       H  0.71836134  0.49320193  0.14350684     0.16560
O1876       O  0.73467426  0.08441626  0.14600927    -0.60470
H1877       H  0.76741285  0.09713743  0.15567729     0.43560
H1878       H  0.59201199  0.43542016  0.20709783     0.43510
C1879       C  0.49167099  0.17185775  0.17397882    -0.05550
C1880       C  0.49315816  0.20256450  0.15573945    -0.32980
C1881       C  0.53479631  0.25028281  0.15426047     0.36270
C1882       C  0.57551083  0.27025114  0.17206997    -0.05910
C1883       C  0.57329732  0.24076942  0.19104947    -0.32880
C1884       C  0.53305613  0.19143645  0.19156656     0.36180
H1885       H  0.46272608  0.18877679  0.14172106     0.16550
O1886       O  0.53703944  0.27563910  0.13447127    -0.60370
H1887       H  0.60457238  0.25507698  0.20478947     0.16560
O1888       O  0.53612811  0.16216824  0.20858040    -0.60470
H1889       H  0.54702745  0.14097714  0.20063822     0.43560
H1890       H  0.50820716  0.28129335  0.13399174     0.43510
C1891       C  0.76500311  0.46029126  0.17353335    -0.05550
C1892       C  0.77830142  0.49205187  0.19400550    -0.32980
C1893       C  0.82558184  0.53576070  0.19825857     0.36270
C1894       C  0.86442091  0.04641217  0.18347284    -0.05910
C1895       C  0.85068259  0.51104691  0.16394852    -0.32880
C1896       C  0.80090601  0.47279463  0.15754767     0.36180
H1897       H  0.75121714  0.48376681  0.20656473     0.16550
O1898       O  0.83217863  0.56791977  0.21688379    -0.60370
H1899       H  0.87742872  0.01072952  0.15339500     0.16560
O1900       O  0.78844880  0.44566421  0.13617832    -0.60470
H1901       H  0.77921053  0.46433139  0.12485395     0.43560
H1902       H  0.81858735  0.58859331  0.21029063     0.43510
C1903       C  0.57301357  0.36506068  0.16807521    -0.05550
C1904       C  0.54077554  0.33886286  0.18480134    -0.32980
C1905       C  0.49225227  0.33067812  0.18356334     0.36270
C1906       C  0.47636112  0.35667176  0.16790483    -0.05910
C1907       C  0.51001064  0.38567846  0.15173797    -0.32880
C1908       C  0.55673988  0.38794571  0.15097859     0.36180
H1909       H  0.55238990  0.32213522  0.19860022     0.16550
O1910       O  0.95994462  0.29441269  0.19697962    -0.60370
H1911       H  0.50072051  0.40691345  0.13963473     0.16560
O1912       O  0.58550241  0.41128408  0.13314460    -0.60470
H1913       H  0.59296155  0.44646564  0.13461163     0.43560
H1914       H  0.97426153  0.30579961  0.21372989     0.43510
C1915       C  0.76115782  0.36372148  0.16562447    -0.05550
C1916       C  0.80394502  0.38920142  0.18220856    -0.32980
C1917       C  0.84896334  0.39156625  0.17810114     0.36270
C1918       C  0.84999704  0.36154550  0.15925586    -0.05910
C1919       C  0.80613547  0.33380822  0.14345341    -0.32880
C1920       C  0.76355996  0.33750870  0.14562268     0.36180
H1921       H  0.80341962  0.41016000  0.19759055     0.16550
O1922       O  0.89211804  0.42576152  0.19169124    -0.60370
H1923       H  0.80600126  0.31179566  0.12832313     0.16560
O1924       O  0.72479562  0.31630504  0.12776740    -0.60470
H1925       H  0.73190910  0.34321131  0.11693073     0.43560
H1926       H  0.90698466  0.45605446  0.18263520     0.43510
C1927       C  0.90874874  0.34248514  0.19450910    -0.05550
C1928       C  0.86884246  0.29402634  0.19592990    -0.32980
C1929       C  0.85896892  0.27328318  0.21768088     0.36270
C1930       C  0.88386980  0.30219789  0.23916776    -0.05910
C1931       C  0.92195896  0.35235716  0.23788160    -0.32880
C1932       C  0.93578272  0.37194191  0.21575341     0.36180
H1933       H  0.84932765  0.27000027  0.17987713     0.16550
O1934       O  0.82779444  0.22309938  0.21744143    -0.60370
H1935       H  0.94312287  0.37541559  0.25394171     0.16560
O1936       O  0.97756143  0.41831686  0.21491965    -0.60470
H1937       H  0.96973383  0.44263608  0.22223503     0.43560
H1938       H  0.84981543  0.20852356  0.21686360     0.43510
C1939       C  0.69176686  0.15093728  0.24775715    -0.05550
C1940       C  0.73045340  0.15870431  0.23440632    -0.32980
C1941       C  0.72099590  0.13921934  0.21127449     0.36270
C1942       C  0.67345290  0.12049414  0.19922341    -0.05910
C1943       C  0.63425128  0.11725196  0.21145360    -0.32880
C1944       C  0.64294750  0.13083580  0.23609391     0.36180
H1945       H  0.76748505  0.17377758  0.24323039     0.16550
O1946       O  0.75753916  0.13521229  0.20098070    -0.60370
H1947       H  0.59679549  0.10090003  0.20234843     0.16560
O1948       O  0.60351011  0.12064726  0.24866579    -0.60470
H1949       H  0.60031344  0.15095626  0.24815892     0.43560
H1950       H  0.76563127  0.15671572  0.18746395     0.43510
C1951       C  0.93375319  0.15206766  0.25966038    -0.05550
C1952       C  0.92958846  0.17914628  0.24099453    -0.32980
C1953       C  0.92763981  0.16318795  0.21750044     0.36270
C1954       C  0.93049911  0.11990452  0.21254812    -0.05910
C1955       C  0.93924662  0.09559091  0.23134247    -0.32880
C1956       C  0.94086205  0.11146333  0.25482575     0.36180
H1957       H  0.92314748  0.20992751  0.24452248     0.16550
O1958       O  0.91849130  0.18734320  0.19953894    -0.60370
H1959       H  0.94140148  0.06220996  0.22769458     0.16560
O1960       O  0.94451107  0.08419548  0.27274994    -0.60470
H1961       H  0.98080941  0.10112708  0.27835692     0.43560
H1962       H  0.88247298  0.16571484  0.19368533     0.43510
C1963       C  0.98672399  0.25679244  0.46710533    -0.05550
C1964       C  0.01892546  0.24679307  0.45469342    -0.32980
C1965       C  0.01786469  0.24893031  0.42995217     0.36270
C1966       C  0.99041132  0.26841001  0.41822095    -0.05910
C1967       C  0.97117772  0.29144085  0.43207351    -0.32880
C1968       C  0.95942325  0.27548516  0.45448262     0.36180
H1969       H  0.04047484  0.23219013  0.46371492     0.16550
O1970       O  0.03818166  0.22658582  0.41734671    -0.60370
H1971       H  0.95242444  0.30911102  0.42348499     0.16560
O1972       O  0.91958284  0.27575926  0.46314182    -0.60470
H1973       H  0.88995187  0.24259598  0.45769480     0.43560
H1974       H  0.07404519  0.25253325  0.41746757     0.43510
C1975       C  0.74066518  0.03329951  0.46938088    -0.05550
C1976       C  0.71359960  0.00533974  0.44824035    -0.32980
C1977       C  0.72523263  0.02716718  0.42680531     0.36270
C1978       C  0.76393444  0.07766404  0.42670510    -0.05910
C1979       C  0.78664043  0.10662468  0.44825689    -0.32880
C1980       C  0.77537707  0.08464821  0.46951899     0.36180
H1981       H  0.68575932  0.96592771  0.44831437     0.16550
O1982       O  0.69965962  0.99843579  0.40619552    -0.60370
H1983       H  0.81412566  0.14619331  0.44867474     0.16560
O1984       O  0.79875294  0.11327535  0.49042399    -0.60470
H1985       H  0.83050645  0.11294922  0.49345317     0.43560
H1986       H  0.67125296  0.00432457  0.40263524     0.43510
C1987       C  0.71055720  0.21362364  0.41486958    -0.05550
C1988       C  0.71777913  0.26092914  0.42177441    -0.32980
C1989       C  0.72118193  0.27589888  0.44584360     0.36270
C1990       C  0.72083896  0.24484910  0.46396107    -0.05910
C1991       C  0.70971964  0.19610575  0.45682014    -0.32880
C1992       C  0.70239352  0.18000281  0.43267800     0.36180
H1993       H  0.72504063  0.28802761  0.40869546     0.16550
O1994       O  0.72953382  0.32302706  0.45156842    -0.60370
H1995       H  0.70891948  0.17096599  0.46993820     0.16560
O1996       O  0.69134600  0.13214873  0.42668175    -0.60470
H1997       H  0.72433106  0.13488854  0.42632571     0.43560
H1998       H  0.69682652  0.31780948  0.45557967     0.43510
Zr1999     Zr  0.83948668  0.71273649  0.37825439     2.17510
O2000       O  0.87334708  0.78953778  0.40384987    -0.51410
O2001       O  0.80637914  0.64943824  0.40589259    -0.74620
O2002       O  0.77763888  0.71582047  0.39910746    -0.81400
O2003       O  0.97215690  0.74487956  0.37595153    -0.83150
O2004       O  0.71091863  0.69684852  0.37224106    -0.78770
O2005       O  0.91083083  0.71816502  0.40011681    -0.90410
O2006       O  0.76842874  0.57321003  0.38564861    -0.76370
O2007       O  0.76274483  0.64528797  0.36028622    -0.85860
O2008       O  0.86125155  0.65405282  0.36403906    -0.85550
O2009       O  0.81053601  0.75102215  0.35001225    -0.72310
O2010       O  0.90317381  0.75932153  0.35315186    -0.84440
Zr2011     Zr  0.81507787  0.66465682  0.28990840     2.26420
Zr2012     Zr  0.73268012  0.68235114  0.33197541     2.06270
Zr2013     Zr  0.92315875  0.69917194  0.33805049     2.10050
Zr2014     Zr  0.78473647  0.58727856  0.34519830     1.78760
O2015       O  0.01292454  0.74878163  0.33518374    -0.93250
O2016       O  0.69770107  0.51983941  0.34350024    -0.41060
O2017       O  0.84667655  0.62952777  0.31879102    -0.77690
O2018       O  0.75195477  0.62090704  0.31670607    -0.96370
O2019       O  0.79475912  0.72428409  0.30479664    -0.89680
O2020       O  0.89241873  0.73342881  0.30796043    -0.92520
C2021       C  0.78052393  0.60148066  0.40464533     1.01230
C2022       C  0.95684947  0.74200894  0.39651603     1.14160
C2023       C  0.73361296  0.70830123  0.39370135     1.04940
O2024       O  0.64818390  0.61038121  0.33052542    -0.94680
O2025       O  0.69918986  0.67442499  0.28987964    -0.90420
O2026       O  0.72650724  0.62457782  0.27736782    -0.83560
C2027       C  0.70396544  0.64878792  0.27321752     1.11580
O2028       O  0.89953425  0.86291337  0.35196323    -0.96650
Zr2029     Zr  0.87199024  0.79247017  0.32282541     1.88940
O2030       O  0.84904453  0.73119378  0.26246433    -0.73300
O2031       O  0.70045310  0.73965027  0.32878172    -0.52560
O2032       O  0.82867763  0.83738481  0.31130241    -0.97240
O2033       O  0.96078362  0.85392952  0.32254865    -0.54460
O2034       O  0.88347490  0.80839263  0.28131401    -0.73810
C2035       C  0.87147677  0.77931210  0.26247269     0.98530
O2036       O  0.79044459  0.61312666  0.25277638    -0.62640
O2037       O  0.93827158  0.63177625  0.34887666    -0.57440
O2038       O  0.86862593  0.63064232  0.28311829    -0.94120
O2039       O  0.94584594  0.68831348  0.29907509    -0.92550
O2040       O  0.82571504  0.54145517  0.35897334    -0.92900
O2041       O  0.76311174  0.51968124  0.31536871    -0.91690
C2042       C  0.91574820  0.65715784  0.28203708     1.17370
H2043       H  0.87380185  0.64101298  0.37639690     0.33320
H2044       H  0.72109371  0.59062639  0.31086285     0.44170
H2045       H  0.91659376  0.74862892  0.29672364     0.37690
H2046       H  0.80460647  0.77514422  0.35800930     0.34170
H2047       H  0.69883998  0.49416715  0.35319274     0.25960
H2048       H  0.66695361  0.72140931  0.33451155     0.31900
H2049       H  0.85327310  0.86664685  0.30348134     0.37810
H2050       H  0.79835841  0.50972392  0.36397736     0.32270
H2051       H  0.95578392  0.62794919  0.33591015     0.31140
H2052       H  0.02609507  0.72660161  0.33988918     0.32830
H2053       H  0.96173814  0.87810873  0.31119315     0.31790
H2054       H  0.76179394  0.53386508  0.30007391     0.35790
H2055       H  0.82003812  0.63063944  0.24396860     0.28520
H2056       H  0.86246272  0.77884419  0.41963058     0.32760
H2057       H  0.91099190  0.89291975  0.34281091     0.35610
H2058       H  0.96421794  0.64647413  0.36267352     0.28220
H2059       H  0.78836920  0.58111967  0.25663847     0.41090
H2060       H  0.64705313  0.59678697  0.34619724     0.31150
H2061       H  0.68144290  0.53376753  0.35293517     0.38760
H2062       H  0.97487926  0.83574941  0.31459140     0.30610
H2063       H  0.72129372  0.76718676  0.34114217     0.30680
H2064       H  0.85472175  0.80621715  0.39816734     0.30940
C2065       C  0.71429002  0.86548468  0.16866835     0.02200
C2066       C  0.71521516  0.91208782  0.17018538     0.02200
C2067       C  0.66920846  0.91254225  0.16997280     0.02200
C2068       C  0.62239385  0.86599393  0.16881130     0.02200
C2069       C  0.62271841  0.81981911  0.17004834     0.02200
C2070       C  0.66838634  0.81978896  0.16934123     0.02200
C2071       C  0.66705492  0.60176428  0.17423345     0.00480
C2072       C  0.66990268  0.63261918  0.15636608     0.00480
C2073       C  0.92757493  0.85643152  0.17073677     0.00480
C2074       C  0.89776791  0.86369027  0.15344496     0.00480
C2075       C  0.91656715  0.59484935  0.18824068     0.00480
C2076       C  0.94968203  0.61774584  0.17160901     0.00480
C2077       C  0.97933940  0.74297515  0.49226109     0.00480
C2078       C  0.97719459  0.77385044  0.50953015     0.00480
C2079       C  0.74015867  0.50821922  0.49072618     0.00480
C2080       C  0.70723312  0.99943157  0.50711458     0.00480
C2081       C  0.51996399  0.50705459  0.49863362     0.02200
C2082       C  0.97422242  0.96011079  0.49777142     0.02200
C2083       C  0.92749638  0.95894600  0.49709443     0.02200
C2084       C  0.92700951  0.50482019  0.49830753     0.02200
C2085       C  0.97281086  0.55171124  0.49962758     0.02200
C2086       C  0.51920883  0.55271881  0.49941450     0.02200
C2087       C  0.73795516  0.76597891  0.48984185     0.00480
C2088       C  0.71163659  0.74009229  0.50836702     0.00480
Zr2089     Zr  0.94959701  0.53291580  0.95883711     2.17510
O2090       O  0.90530724  0.56954192  0.93656801    -0.51410
O2091       O  0.47299877  0.50469835  0.92376618    -0.74620
O2092       O  0.50554771  0.61866246  0.95218169    -0.81400
O2093       O  0.83069777  0.90443546  0.95687392    -0.83150
O2094       O  0.58219884  0.63166554  0.96270788    -0.78770
O2095       O  0.85929590  0.48511347  0.95529745    -0.90410
O2096       O  0.51924743  0.96960509  0.93545836    -0.76370
O2097       O  0.52917367  0.53976444  0.96927082    -0.85860
O2098       O  0.93337062  0.94989802  0.96573309    -0.85550
O2099       O  0.48920523  0.59314406  0.99274461    -0.72310
O2100       O  0.89522564  0.50319025  0.98947670    -0.84440
Zr2101     Zr  0.49496771  0.48698474  0.03972366     2.26420
Zr2102     Zr  0.56900452  0.59905967  0.00301717     2.06270
Zr2103     Zr  0.87783713  0.91948780  0.99667432     2.10050
Zr2104     Zr  0.51312350  0.45795632  0.97654228     1.78760
O2105       O  0.79195437  0.89595491  0.00206825    -0.93250
O2106       O  0.60121274  0.48958273  0.97182636    -0.41060
O2107       O  0.95788729  0.92689018  0.00655604    -0.77690
O2108       O  0.55233312  0.51608077  0.01039195    -0.96370
O2109       O  0.51365382  0.57008094  0.03323022    -0.89680
O2110       O  0.91568642  0.48034880  0.02999220    -0.92520
C2111       C  0.50076027  0.48611609  0.91981711     1.01230
C2112       C  0.83541820  0.94126088  0.94511466     1.14160
C2113       C  0.55001264  0.63425562  0.94768834     1.04940
O2114       O  0.65650099  0.63174401  0.99690666    -0.94680
O2115       O  0.62201622  0.60914269  0.04094045    -0.90420
O2116       O  0.57189833  0.54290447  0.06105912    -0.83560
C2117       C  0.61307270  0.58270768  0.05921026     1.11580
O2118       O  0.89574303  0.60332592  0.00040599    -0.96650
Zr2119     Zr  0.93455146  0.56289600  0.02268858     1.88940
O2120       O  0.97260358  0.51047606  0.07615887    -0.73300
O2121       O  0.58896920  0.68376254  0.01511928    -0.52560
O2122       O  0.97942609  0.65036537  0.03828761    -0.97240
O2123       O  0.85220266  0.53951947  0.03439854    -0.54460
O2124       O  0.94207508  0.56067030  0.06466211    -0.73810
C2125       C  0.95491914  0.53932141  0.08042911     0.98530
O2126       O  0.54059010  0.94572382  0.05440485    -0.62640
O2127       O  0.85465754  0.83282805  0.98715263    -0.57440
O2128       O  0.94500404  0.90143279  0.04830013    -0.94120
O2129       O  0.86710319  0.88453307  0.03686516    -0.92550
O2130       O  0.47278354  0.87540848  0.95527952    -0.92900
O2131       O  0.54085345  0.90474056  0.99523950    -0.91690
C2132       C  0.89986027  0.88332057  0.05218227     1.17370
H2133       H  0.91841194  0.92802574  0.95140156     0.33320
H2134       H  0.58318646  0.51726144  0.01601436     0.44170
H2135       H  0.89531555  0.47020463  0.04294871     0.37690
H2136       H  0.49381538  0.62601529  0.99047284     0.34170
H2137       H  0.60076246  0.46712432  0.95898819     0.25960
H2138       H  0.62258201  0.69919033  0.02420412     0.31900
H2139       H  0.95851604  0.65227581  0.05004700     0.37810
H2140       H  0.49951876  0.87515904  0.94700173     0.32270
H2141       H  0.81936789  0.81640205  0.97996842     0.31140
H2142       H  0.77439439  0.85909868  0.00285953     0.32830
H2143       H  0.85874028  0.56574620  0.04680204     0.31790
H2144       H  0.56971500  0.92756113  0.00684482     0.35790
H2145       H  0.52596651  0.91323212  0.04495957     0.28520
H2146       H  0.92791791  0.60613887  0.93638825     0.32760
H2147       H  0.89423022  0.62675336  0.01201732     0.35610
H2148       H  0.87386538  0.83448927  0.97380721     0.28220
H2149       H  0.57423474  0.46527812  0.04889321     0.41090
H2150       H  0.65945694  0.60153637  0.99462423     0.31150
H2151       H  0.61250221  0.52201441  0.96473752     0.38760
H2152       H  0.84201030  0.50890347  0.04296253     0.30610
H2153       H  0.59484448  0.70115531  0.00030916     0.30680
H2154       H  0.87961008  0.56761939  0.94640027     0.30940
Zr2155     Zr  0.65630915  0.86612347  0.71049916     2.17510
O2156       O  0.68771786  0.91278772  0.74907099    -0.51410
O2157       O  0.62932916  0.80682752  0.74045479    -0.74620
O2158       O  0.61057263  0.90589271  0.72156212    -0.81400
O2159       O  0.76634597  0.85059544  0.71044256    -0.83150
O2160       O  0.53193217  0.85718153  0.70335079    -0.78770
O2161       O  0.74606731  0.90851346  0.71829588    -0.90410
O2162       O  0.58468953  0.72747604  0.72355397    -0.76370
O2163       O  0.57418212  0.80167471  0.69513207    -0.85860
O2164       O  0.66604531  0.79779799  0.69703504    -0.85550
O2165       O  0.62987239  0.90434412  0.68058416    -0.72310
O2166       O  0.71899127  0.89829114  0.68347581    -0.84440
Zr2167     Zr  0.62025879  0.80645055  0.62248270     2.26420
Zr2168     Zr  0.54761837  0.83782590  0.66434124     2.06270
Zr2169     Zr  0.72702894  0.82897268  0.66853574     2.10050
Zr2170     Zr  0.58440799  0.73483000  0.68100712     1.78760
O2171       O  0.81610092  0.88688260  0.66705197    -0.93250
O2172       O  0.49607083  0.68612530  0.68714651    -0.41060
O2173       O  0.64389069  0.76671323  0.65245741    -0.77690
O2174       O  0.55775653  0.76983958  0.64973963    -0.96370
O2175       O  0.61107067  0.87295816  0.63779301    -0.89680
O2176       O  0.70247245  0.86858216  0.63933441    -0.92520
C2177       C  0.60377758  0.75931231  0.74166722     1.01230
C2178       C  0.76656224  0.88346525  0.72492488     1.14160
C2179       C  0.56318566  0.88603867  0.72073020     1.04940
O2180       O  0.95900863  0.78321798  0.66852235    -0.94680
O2181       O  0.49654819  0.80540552  0.62566509    -0.90420
O2182       O  0.57128997  0.84567369  0.61560339    -0.83560
C2183       C  0.52496710  0.81804123  0.60923123     1.11580
O2184       O  0.72706088  0.00703749  0.68298898    -0.96650
Zr2185     Zr  0.69229807  0.93534745  0.65387006     1.88940
O2186       O  0.66546512  0.86388259  0.59313332    -0.73300
O2187       O  0.53355721  0.90671867  0.65539766    -0.52560
O2188       O  0.65790926  0.98668506  0.63948878    -0.97240
O2189       O  0.78100399  0.99418241  0.65175025    -0.54460
O2190       O  0.70113899  0.94119824  0.61248208    -0.73810
C2191       C  0.69069522  0.91219331  0.59389354     0.98530
O2192       O  0.55567373  0.73725698  0.59542049    -0.62640
O2193       O  0.74154732  0.75916172  0.67329519    -0.57440
O2194       O  0.66017495  0.76009113  0.61318891    -0.94120
O2195       O  0.74029487  0.81035939  0.62645292    -0.92550
O2196       O  0.61540830  0.67789145  0.68962850    -0.92900
O2197       O  0.54114947  0.65823647  0.65486690    -0.91690
C2198       C  0.70581836  0.78279953  0.60929176     1.17370
H2199       H  0.67729491  0.78495141  0.70999225     0.33320
H2200       H  0.52623470  0.74360442  0.64176648     0.44170
H2201       H  0.72708500  0.88081344  0.62818855     0.37690
H2202       H  0.62830865  0.93357359  0.68553326     0.34170
H2203       H  0.49268537  0.65646714  0.69497967     0.25960
H2204       H  0.49659554  0.89095884  0.65286920     0.31900
H2205       H  0.68496922  0.01359448  0.63154020     0.37810
H2206       H  0.59032622  0.65234302  0.69893931     0.32270
H2207       H  0.77756071  0.77513953  0.67921278     0.31140
H2208       H  0.82937746  0.86544981  0.66189426     0.32830
H2209       H  0.78163173  0.01807016  0.64029095     0.31790
H2210       H  0.54814106  0.66975721  0.63879812     0.35790
H2211       H  0.56165531  0.70907374  0.59806204     0.28520
H2212       H  0.65910215  0.89898384  0.75868451     0.32760
H2213       H  0.73327246  0.03612727  0.67385924     0.35610
H2214       H  0.72376089  0.74274096  0.68701641     0.28220
H2215       H  0.52352171  0.72634274  0.60196366     0.41750
H2216       H  0.95777458  0.75611707  0.67789026     0.31150
H2217       H  0.49181643  0.70607621  0.69964588     0.38760
H2218       H  0.79311064  0.97451650  0.64343344     0.30610
H2219       H  0.54344683  0.92751552  0.67052869     0.30680
H2220       H  0.69486439  0.94713626  0.74622489     0.30940
C2221       C  0.81019293  0.91415782  0.84357060     0.00480
C2222       C  0.80164639  0.93893170  0.82478953     0.00480
C2223       C  0.76517830  0.68232016  0.83096478     0.02200
C2224       C  0.81315360  0.72695285  0.83183249     0.02200
C2225       C  0.85818170  0.72530781  0.83298995     0.02200
C2226       C  0.85591630  0.67839787  0.83309064     0.02200
C2227       C  0.80780324  0.63320609  0.82950301     0.02200
C2228       C  0.76178534  0.63446899  0.82791759     0.02200
C2229       C  0.58543298  0.69004026  0.85175467     0.00480
C2230       C  0.55185876  0.69083653  0.83418254     0.00480
C2231       C  0.55774798  0.96352419  0.82825404     0.00480
C2232       C  0.52839556  0.92004340  0.81378189     0.00480
C2233       C  0.90424928  0.67700160  0.83524364    -0.05550
C2234       C  0.91495201  0.65466887  0.81669513    -0.32980
C2235       C  0.96020249  0.65449811  0.81769740     0.36270
C2236       C  0.99902084  0.68103882  0.83658922    -0.05910
C2237       C  0.98768263  0.70241960  0.85555043    -0.32880
C2238       C  0.94002172  0.69811433  0.85546093     0.36180
H2239       H  0.88786931  0.63696293  0.80120685     0.16550
O2240       O  0.96616467  0.62860677  0.79961475    -0.60370
H2241       H  0.01570494  0.72297543  0.87039827     0.16560
O2242       O  0.92852217  0.71414075  0.87536390    -0.60470
H2243       H  0.91950560  0.68690545  0.88619230     0.43560
H2244       H  0.95662080  0.59532783  0.80546385     0.43510
C2245       C  0.63262509  0.68955784  0.84648631    -0.05550
C2246       C  0.66553198  0.72215514  0.83116249    -0.32980
C2247       C  0.70448634  0.71631523  0.82392419     0.36270
C2248       C  0.71956065  0.68571486  0.83598580    -0.05910
C2249       C  0.68996215  0.65694890  0.85327801    -0.32880
C2250       C  0.64538393  0.65577069  0.85720478     0.36180
H2251       H  0.66049995  0.75122143  0.82374157     0.16550
O2252       O  0.72536616  0.73862641  0.80415430    -0.60370
H2253       H  0.69993498  0.63291397  0.86296678     0.16560
O2254       O  0.61450748  0.62080368  0.87150635    -0.60470
H2255       H  0.58850138  0.59266078  0.86052143     0.43560
H2256       H  0.69955535  0.71941275  0.79063139     0.43510
C2257       C  0.71007936  0.58623522  0.82409810    -0.05550
C2258       C  0.69945025  0.54384720  0.83678700    -0.32980
C2259       C  0.65187937  0.50028358  0.83412389     0.36270
C2260       C  0.61034835  0.50155517  0.82298409    -0.05910
C2261       C  0.61991354  0.54323622  0.81021760    -0.32880
C2262       C  0.66953041  0.58308637  0.80901356     0.36180
H2263       H  0.72722330  0.54431079  0.84958996     0.16550
O2264       O  0.64496034  0.95905979  0.84553674    -0.60370
H2265       H  0.58905924  0.54578564  0.80158891     0.16560
O2266       O  0.67823662  0.61904421  0.79330894    -0.60470
H2267       H  0.65158128  0.62767534  0.79414249     0.43560
H2268       H  0.64546543  0.93619018  0.83318620     0.43510
C2269       C  0.98351203  0.87103290  0.82030049    -0.05550
C2270       C  0.97833107  0.85560423  0.84362146    -0.32980
C2271       C  0.93762716  0.80877829  0.84859123     0.36270
C2272       C  0.90631652  0.77280904  0.82987461    -0.05910
C2273       C  0.91454077  0.78622351  0.80676847    -0.32880
C2274       C  0.94783974  0.83558863  0.80210750     0.36180
H2275       H  0.00472162  0.87990516  0.85823882     0.16550
O2276       O  0.92690743  0.79973058  0.87152071    -0.60370
H2277       H  0.89015279  0.75971047  0.79215316     0.16560
O2278       O  0.94393442  0.84864645  0.77948569    -0.60470
H2279       H  0.92562218  0.86721549  0.78016788     0.43560
H2280       H  0.95888209  0.80836718  0.88101846     0.43510
C2281       C  0.80608355  0.58429973  0.82832657    -0.05550
C2282       C  0.78592053  0.55223871  0.80777978    -0.32980
C2283       C  0.78086543  0.50440334  0.80701854     0.36270
C2284       C  0.79784602  0.48730698  0.82705212    -0.05910
C2285       C  0.81360196  0.51954417  0.84804806    -0.32880
C2286       C  0.81937878  0.56732575  0.84862393     0.36180
H2287       H  0.77264314  0.56383515  0.79231028     0.16550
O2288       O  0.75547775  0.47353965  0.78698163    -0.60370
H2289       H  0.82010614  0.50969329  0.86499821     0.16560
O2290       O  0.83553064  0.59626288  0.86968472    -0.60470
H2291       H  0.80484580  0.58625663  0.87754709     0.43560
H2292       H  0.77539112  0.49061629  0.77385321     0.43510
C2293       C  0.81751024  0.77681226  0.83438233    -0.05550
C2294       C  0.81750970  0.79498462  0.85683023    -0.32980
C2295       C  0.82039239  0.84112526  0.86059908     0.36270
C2296       C  0.81996701  0.86971388  0.84104123    -0.05910
C2297       C  0.83038718  0.85478741  0.81953298    -0.32880
C2298       C  0.82611000  0.80803174  0.81557130     0.36180
H2299       H  0.81644858  0.77355188  0.87182321     0.16550
O2300       O  0.83042784  0.85995557  0.88371148    -0.60370
H2301       H  0.84415861  0.87918181  0.80556327     0.16560
O2302       O  0.83057166  0.79418715  0.79313202    -0.60470
H2303       H  0.80391899  0.75880026  0.78916757     0.43560
H2304       H  0.80322332  0.83454337  0.89225631     0.43510
C2305       C  0.78395377  0.88955153  0.75059159    -0.05550
C2306       C  0.74907311  0.85900352  0.76581756    -0.32980
C2307       C  0.75462580  0.87415031  0.78992563     0.36270
C2308       C  0.79701006  0.91952735  0.79962453    -0.05910
C2309       C  0.83395068  0.94826228  0.78474287    -0.32880
C2310       C  0.82723867  0.93389780  0.76042270     0.36180
H2311       H  0.71533949  0.82508031  0.75861033     0.16550
O2312       O  0.71775265  0.84517192  0.80372361    -0.60370
H2313       H  0.86677566  0.98325010  0.79182620     0.16560
O2314       O  0.86141643  0.96531363  0.74608944    -0.60470
H2315       H  0.88590184  0.95372356  0.74550206     0.43560
H2316       H  0.69807143  0.86216216  0.80514875     0.43510
C2317       C  0.59461949  0.74122560  0.76567558    -0.05550
C2318       C  0.59815043  0.77434477  0.78412434    -0.32980
C2319       C  0.58313382  0.75755083  0.80608994     0.36270
C2320       C  0.56844477  0.70795715  0.81077333    -0.05910
C2321       C  0.56904238  0.67563455  0.79321175    -0.32880
C2322       C  0.58100125  0.69166236  0.77057039     0.36180
H2323       H  0.61146384  0.81339181  0.78149076     0.16550
O2324       O  0.58487007  0.79043809  0.82329260    -0.60370
H2325       H  0.55874986  0.63761081  0.79690852     0.16560
O2326       O  0.57926501  0.65867262  0.75347225    -0.60470
H2327       H  0.61348618  0.66341041  0.75489029     0.43560
H2328       H  0.55104502  0.78667897  0.82152501     0.43510
C2329       C  0.54573743  0.89160823  0.74278805    -0.05550
C2330       C  0.53924546  0.93215637  0.74809009    -0.32980
C2331       C  0.53516537  0.94360858  0.77155527     0.36270
C2332       C  0.54277885  0.91712795  0.78986909    -0.05910
C2333       C  0.55074517  0.87755284  0.78418925    -0.32880
C2334       C  0.54845000  0.86270244  0.76071141     0.36180
H2335       H  0.53655403  0.95413268  0.73409053     0.16550
O2336       O  0.51831264  0.97608892  0.77622926    -0.60370
H2337       H  0.55373467  0.85513841  0.79788525     0.16560
O2338       O  0.54913243  0.81976834  0.75515415    -0.60470
H2339       H  0.01355167  0.79245146  0.75384881     0.43560
H2340       H  0.53688649  0.50555470  0.76701162     0.43510
C2341       C  0.82320904  0.93670591  0.91891991    -0.05550
C2342       C  0.86171650  0.96901136  0.90582584    -0.32980
C2343       C  0.85674754  0.96413888  0.88120327     0.36270
C2344       C  0.81056038  0.92916619  0.86870790    -0.05910
C2345       C  0.76922445  0.90061415  0.88154822    -0.32880
C2346       C  0.77585966  0.90314789  0.90661684     0.36180
H2347       H  0.89661870  0.99739304  0.91480348     0.16550
O2348       O  0.89680772  0.99413260  0.86914339    -0.60370
H2349       H  0.73355460  0.87273594  0.87217385     0.16560
O2350       O  0.73654163  0.87212365  0.91871917    -0.60470
H2351       H  0.73872524  0.84134855  0.92009662     0.43560
H2352       H  0.90175702  0.02830387  0.87097219     0.43510
C2353       C  0.57440048  0.68199656  0.87677845    -0.05550
C2354       C  0.53052485  0.63951974  0.88135663    -0.32980
C2355       C  0.52255742  0.62531320  0.90430297     0.36270
C2356       C  0.56044694  0.65139209  0.92347529    -0.05910
C2357       C  0.60500503  0.69427547  0.91902411    -0.32880
C2358       C  0.61166783  0.71029484  0.89591670     0.36180
H2359       H  0.50254744  0.61590534  0.86694907     0.16550
O2360       O  0.47778897  0.58404567  0.90757130    -0.60370
H2361       H  0.63412744  0.71565689  0.93340085     0.16560
O2362       O  0.65567516  0.75224918  0.89199081    -0.60470
H2363       H  0.64741421  0.77924597  0.89057657     0.43560
H2364       H  0.45160023  0.59096027  0.90069124     0.43510
C2365       C  0.51488618  0.48520161  0.89594220    -0.05550
C2366       C  0.97896252  0.96569312  0.87611326    -0.32980
C2367       C  0.99283136  0.96207108  0.85356944     0.36270
C2368       C  0.54242472  0.97357183  0.85117178    -0.05910
C2369       C  0.57833289  0.49504583  0.87123384    -0.32880
C2370       C  0.56509474  0.50149402  0.89316251     0.36180
H2371       H  0.94000149  0.95085991  0.87835720     0.16550
O2372       O  0.95813185  0.94773683  0.83405406    -0.60370
H2373       H  0.61716316  0.50683188  0.87060756     0.16560
O2374       O  0.60160926  0.52246536  0.91205986    -0.60470
H2375       H  0.61253589  0.55866637  0.91301815     0.43560
H2376       H  0.93010497  0.91421581  0.83686756     0.43510
C2377       C  0.71459528  0.77837470  0.58351513    -0.05550
C2378       C  0.75790214  0.78061655  0.57574736    -0.32980
C2379       C  0.76038610  0.77114724  0.55120558     0.36270
C2380       C  0.72016997  0.76142147  0.53388241    -0.05910
C2381       C  0.67941215  0.76258278  0.54175425    -0.32880
C2382       C  0.67546579  0.76905940  0.56565873     0.36180
H2383       H  0.78870875  0.78738133  0.58866940     0.16550
O2384       O  0.80135372  0.77019183  0.54456190    -0.60370
H2385       H  0.64829209  0.75608014  0.52902213     0.16560
O2386       O  0.63319784  0.76881500  0.57112875    -0.60470
H2387       H  0.60449113  0.73696946  0.56352612     0.43560
H2388       H  0.79349038  0.73511221  0.54588682     0.43510
C2389       C  0.66353569  0.69014847  0.50400453    -0.05550
C2390       C  0.62480738  0.68210695  0.48646244    -0.32980
C2391       C  0.57850573  0.63696256  0.48407426     0.36270
C2392       C  0.56792218  0.60160737  0.50114887    -0.05910
C2393       C  0.60534211  0.61140407  0.51961134    -0.32880
C2394       C  0.65332833  0.65308236  0.52019742     0.36180
H2395       H  0.63020253  0.71055981  0.47443173     0.16550
O2396       O  0.54496911  0.62628438  0.46440540    -0.60370
H2397       H  0.59786140  0.58534209  0.53321418     0.16560
O2398       O  0.68974590  0.65803506  0.53728930    -0.60470
H2399       H  0.70747620  0.64324435  0.52965035     0.43560
H2400       H  0.53840593  0.65448921  0.46390396     0.43510
C2401       C  0.87881453  0.90932425  0.49553323    -0.05550
C2402       C  0.84369860  0.90011858  0.51170729    -0.32980
C2403       C  0.79671410  0.85605214  0.50925437     0.36270
C2404       C  0.78720983  0.81540533  0.49348954    -0.05910
C2405       C  0.82397059  0.82391941  0.47822824    -0.32880
C2406       C  0.86719869  0.87109221  0.47795999     0.36180
H2407       H  0.85125945  0.92872443  0.52537468     0.16550
O2408       O  0.75962568  0.85567171  0.52080020    -0.60370
H2409       H  0.81796647  0.79460651  0.46530235     0.16560
O2410       O  0.89684501  0.88040911  0.45989519    -0.60470
H2411       H  0.90570764  0.85376289  0.45949610     0.43560
H2412       H  0.73677013  0.85801660  0.50829927     0.43510
C2413       C  0.71761783  0.98214099  0.52946586    -0.05550
C2414       C  0.70864998  0.93321449  0.52967946    -0.32980
C2415       C  0.70385033  0.91088901  0.55095406     0.36270
C2416       C  0.70776551  0.93751076  0.57211982    -0.05910
C2417       C  0.72376946  0.98900177  0.57195852    -0.32880
C2418       C  0.72872395  0.01140880  0.55069227     0.36180
H2419       H  0.70109130  0.91108058  0.51320324     0.16550
O2420       O  0.69360507  0.86259430  0.55076927    -0.60370
H2421       H  0.72856139  0.01114830  0.58803697     0.16560
O2422       O  0.73826363  0.55983767  0.55056282    -0.60470
H2423       H  0.77532894  0.58115796  0.55255768     0.43560
H2424       H  0.65936178  0.84222107  0.54246293     0.43510
C2425       C  0.87793257  0.50360371  0.49750392    -0.05550
C2426       C  0.84126521  0.47787099  0.47826653    -0.32980
C2427       C  0.79467254  0.47502311  0.47718265     0.36270
C2428       C  0.78504234  0.50136323  0.49466528    -0.05910
C2429       C  0.82192829  0.02717941  0.51393993    -0.32880
C2430       C  0.86700164  0.02668879  0.51590748     0.36180
H2431       H  0.84851078  0.45907405  0.46413487     0.16550
O2432       O  0.75827909  0.44540822  0.45921574    -0.60370
H2433       H  0.81646500  0.04890206  0.52728619     0.16560
O2434       O  0.90058867  0.04981860  0.53567696    -0.60470
H2435       H  0.89369273  0.02270681  0.54636083     0.43560
H2436       H  0.77197441  0.45998179  0.44434156     0.43510
C2437       C  0.65947147  0.50335260  0.50450392    -0.05550
C2438       C  0.64994002  0.53049587  0.48709645    -0.32980
C2439       C  0.60449512  0.53062079  0.48428660     0.36270
C2440       C  0.56931859  0.50847220  0.50071487    -0.05910
C2441       C  0.58035351  0.98594601  0.51934476    -0.32880
C2442       C  0.62179752  0.97945142  0.52026756     0.36180
H2443       H  0.67635912  0.55201848  0.47513836     0.16550
O2444       O  0.59355652  0.55019286  0.46477072    -0.60370
H2445       H  0.55406682  0.96918236  0.53235015     0.16560
O2446       O  0.62215257  0.94594247  0.53556654    -0.60470
H2447       H  0.62299207  0.95961287  0.55166949     0.43560
H2448       H  0.62173735  0.58518607  0.46485869     0.43510
C2449       C  0.50950516  0.80037381  0.58382701    -0.05550
C2450       C  0.54669077  0.82401586  0.56845938    -0.32980
C2451       C  0.53771082  0.80909242  0.54463625     0.36270
C2452       C  0.48972377  0.77160857  0.53498469    -0.05910
C2453       C  0.95283843  0.74489032  0.55015537    -0.32880
C2454       C  0.96243781  0.75946364  0.57461563     0.36180
H2455       H  0.58314888  0.85567572  0.57472785     0.16550
O2456       O  0.57449027  0.83581388  0.53031385    -0.60370
H2457       H  0.91563079  0.71586860  0.54280405     0.16560
O2458       O  0.92574234  0.73419186  0.58910197    -0.60470
H2459       H  0.90514500  0.75048316  0.58816394     0.43560
H2460       H  0.58030643  0.81090317  0.52204290     0.43510
C2461       C  0.97166723  0.59974369  0.49980113    -0.05550
C2462       C  0.94378029  0.60662465  0.48114151    -0.32980
C2463       C  0.94290044  0.65114213  0.48001595     0.36270
C2464       C  0.97344107  0.69236957  0.49681544    -0.05910
C2465       C  0.50105520  0.68525367  0.51573805    -0.32880
C2466       C  0.49870132  0.63884202  0.51780103     0.36180
H2467       H  0.92292924  0.57733526  0.46703224     0.16550
O2468       O  0.91403428  0.65469507  0.46137522    -0.60370
H2469       H  0.52601920  0.71565404  0.52863810     0.16560
O2470       O  0.52220870  0.63156401  0.53757485    -0.60470
H2471       H  0.55791876  0.65844288  0.53860798     0.43560
H2472       H  0.89077644  0.66282104  0.46859702     0.43510
C2473       C  0.97609363  0.82138707  0.50533083    -0.05550
C2474       C  0.50792059  0.85724832  0.49066436    -0.32980
C2475       C  0.50282204  0.89882337  0.48559918     0.36270
C2476       C  0.97537806  0.91216034  0.49981876    -0.05910
C2477       C  0.94919682  0.87971646  0.51688553    -0.32880
C2478       C  0.94530345  0.83299126  0.51792453     0.36180
H2479       H  0.53443334  0.85152631  0.48185666     0.16550
O2480       O  0.52283708  0.92503156  0.46633676    -0.60370
H2481       H  0.92899777  0.88926073  0.52862400     0.16560
O2482       O  0.91087726  0.79897285  0.53134351    -0.60470
H2483       H  0.88119502  0.77673967  0.51995007     0.43560
H2484       H  0.55718891  0.93033847  0.46654183     0.43510
C2485       C  0.94636107  0.59179401  0.14891293    -0.05550
C2486       C  0.97806611  0.57207981  0.14659499    -0.32980
C2487       C  0.97928045  0.55138256  0.12466427     0.36270
C2488       C  0.94855040  0.55063888  0.10480015    -0.05910
C2489       C  0.91434813  0.56719921  0.10775957    -0.32880
C2490       C  0.91369810  0.58851001  0.12945843     0.36180
H2491       H  0.00278667  0.57394773  0.16172280     0.16550
O2492       O  0.01097286  0.03284640  0.12287569    -0.60370
H2493       H  0.88891427  0.56519882  0.09293941     0.16560
O2494       O  0.87961775  0.60388078  0.13197355    -0.60470
H2495       H  0.88579478  0.62900763  0.12021150     0.43560
H2496       H  0.03978352  0.05866442  0.11536188     0.43510
C2497       C  0.90546090  0.87081876  0.12754305    -0.05550
C2498       C  0.90691981  0.83466136  0.11262569    -0.32980
C2499       C  0.90133026  0.83551666  0.08767577     0.36270
C2500       C  0.89070936  0.87064482  0.07707693    -0.05910
C2501       C  0.88877753  0.90604967  0.09201514    -0.32880
C2502       C  0.89767588  0.90744432  0.11670172     0.36180
H2503       H  0.91164741  0.80536069  0.12027820     0.16550
O2504       O  0.90717410  0.80240116  0.07377805    -0.60370
H2505       H  0.88310600  0.93487359  0.08446860     0.16560
O2506       O  0.89825564  0.94484086  0.13040291    -0.60470
H2507       H  0.86402443  0.93969448  0.12748092     0.43560
H2508       H  0.87299197  0.77282132  0.07019889     0.43510
C2509       C  0.67023187  0.62014670  0.13065240    -0.05550
C2510       C  0.64177736  0.57059436  0.12125656    -0.32980
C2511       C  0.63690237  0.55870770  0.09721852     0.36270
C2512       C  0.64829644  0.59657748  0.08120852    -0.05910
C2513       C  0.68022470  0.64647429  0.09002467    -0.32880
C2514       C  0.69386951  0.65806354  0.11468368     0.36180
H2515       H  0.62134854  0.54030915  0.13221048     0.16550
O2516       O  0.61525589  0.50913221  0.08931204    -0.60370
H2517       H  0.69181246  0.67642811  0.07821750     0.16560
O2518       O  0.72781992  0.70661019  0.12309450    -0.60470
H2519       H  0.71300219  0.72695802  0.11754203     0.43560
H2520       H  0.58214785  0.49130780  0.09556839     0.43510
C2521       C  0.66737349  0.77074245  0.16763561    -0.05550
C2522       C  0.63620403  0.73465690  0.14926129    -0.32980
C2523       C  0.63346883  0.68827292  0.14706047     0.36270
C2524       C  0.66719541  0.67932834  0.16140967    -0.05910
C2525       C  0.70051613  0.71690509  0.17898744    -0.32880
C2526       C  0.69815203  0.76045510  0.18331380     0.36180
H2527       H  0.61326266  0.74225711  0.13657551     0.16550
O2528       O  0.59994710  0.65307370  0.12970227    -0.60370
H2529       H  0.72920242  0.71344895  0.18929641     0.16560
O2530       O  0.72542189  0.79255673  0.20291959    -0.60470
H2531       H  0.76013553  0.79883211  0.20315222     0.43560
H2532       H  0.56658265  0.64748973  0.13270840     0.43510
C2533       C  0.66874828  0.55356791  0.17203136    -0.05550
C2534       C  0.64222961  0.01617824  0.18739046    -0.32980
C2535       C  0.64541021  0.97255938  0.18821539     0.36270
C2536       C  0.67031536  0.96193238  0.17137822    -0.05910
C2537       C  0.69754256  0.99941411  0.15619383    -0.32880
C2538       C  0.70040281  0.54623709  0.15792695     0.36180
H2539       H  0.62030044  0.02162573  0.19971719     0.16550
O2540       O  0.62655066  0.94181884  0.20630241    -0.60370
H2541       H  0.71835101  0.99319445  0.14349606     0.16560
O2542       O  0.73469498  0.58442644  0.14602823    -0.60470
H2543       H  0.76743246  0.59713881  0.15569591     0.43560
H2544       H  0.59200668  0.93542662  0.20708985     0.43510
C2545       C  0.49166580  0.67186590  0.17399020    -0.05550
C2546       C  0.49315354  0.70257104  0.15574995    -0.32980
C2547       C  0.53479530  0.75028450  0.15426756     0.36270
C2548       C  0.57551089  0.77025380  0.17207638    -0.05910
C2549       C  0.57329678  0.74077529  0.19105744    -0.32880
C2550       C  0.53305366  0.69144384  0.19157646     0.36180
H2551       H  0.46271980  0.68878461  0.14173260     0.16550
O2552       O  0.53704009  0.77563502  0.13447601    -0.60370
H2553       H  0.60457273  0.75508342  0.20479699     0.16560
O2554       O  0.53612702  0.66217583  0.20859005    -0.60470
H2555       H  0.54703758  0.64099324  0.20064896     0.43560
H2556       H  0.50820555  0.78128621  0.13399270     0.43510
C2557       C  0.76499902  0.96029484  0.17352616    -0.05550
C2558       C  0.77829666  0.99206521  0.19399468    -0.32980
C2559       C  0.82557695  0.03577479  0.19824504     0.36270
C2560       C  0.86442404  0.54640847  0.18348371    -0.05910
C2561       C  0.85067992  0.01104266  0.16394131    -0.32880
C2562       C  0.80090252  0.97279079  0.15754125     0.36180
H2563       H  0.75121204  0.98378729  0.20655298     0.16550
O2564       O  0.83217267  0.06794411  0.21686535    -0.60370
H2565       H  0.87743017  0.51073966  0.15339958     0.16560
O2566       O  0.78844508  0.94565349  0.13617391    -0.60470
H2567       H  0.77920594  0.96431651  0.12484730     0.43560
H2568       H  0.81858275  0.08861520  0.21026737     0.43510
C2569       C  0.57300729  0.86505821  0.16807230    -0.05550
C2570       C  0.54077031  0.83886479  0.18479963    -0.32980
C2571       C  0.49224430  0.83067371  0.18355944     0.36270
C2572       C  0.47634895  0.85665967  0.16789792    -0.05910
C2573       C  0.50999649  0.88566165  0.15172932    -0.32880
C2574       C  0.55672891  0.88793376  0.15097222     0.36180
H2575       H  0.55238722  0.82214368  0.19860082     0.16550
O2576       O  0.95993825  0.79440905  0.19697839    -0.60370
H2577       H  0.50070218  0.90688907  0.13962298     0.16560
O2578       O  0.58548973  0.91126709  0.13313703    -0.60470
H2579       H  0.59294742  0.94644831  0.13460158     0.43560
H2580       H  0.97425516  0.80579708  0.21372859     0.43510
C2581       C  0.76115440  0.86372218  0.16562508    -0.05550
C2582       C  0.80394623  0.88920579  0.18220618    -0.32980
C2583       C  0.84896181  0.89156648  0.17809642     0.36270
C2584       C  0.84998863  0.86153959  0.15925183    -0.05910
C2585       C  0.80612334  0.83380144  0.14345189    -0.32880
C2586       C  0.76354976  0.83750413  0.14562356     0.36180
H2587       H  0.80342638  0.91017038  0.19758724     0.16550
O2588       O  0.89212049  0.92576369  0.19168338    -0.60370
H2589       H  0.80598451  0.81178608  0.12832164     0.16560
O2590       O  0.72478081  0.81629855  0.12777049    -0.60470
H2591       H  0.73189401  0.84320163  0.11693190     0.43560
H2592       H  0.90698639  0.95605293  0.18262481     0.43510
C2593       C  0.90874244  0.84248251  0.19450693    -0.05550
C2594       C  0.86883724  0.79402486  0.19593208    -0.32980
C2595       C  0.85897106  0.77328750  0.21768505     0.36270
C2596       C  0.88387811  0.80220598  0.23917049    -0.05910
C2597       C  0.92196524  0.85236468  0.23788028    -0.32880
C2598       C  0.93578170  0.87194394  0.21574990     0.36180
H2599       H  0.84931764  0.76999450  0.17988096     0.16550
O2600       O  0.82779743  0.72310455  0.21744888    -0.60370
H2601       H  0.94313363  0.87542690  0.25393885     0.16560
O2602       O  0.97755917  0.91831825  0.21491273    -0.60470
H2603       H  0.96973423  0.94263883  0.22222887     0.43560
H2604       H  0.84981873  0.70852898  0.21687177     0.43510
C2605       C  0.69178325  0.65094763  0.24777318    -0.05550
C2606       C  0.73046956  0.65871275  0.23442295    -0.32980
C2607       C  0.72101047  0.63922174  0.21129262     0.36270
C2608       C  0.67346764  0.62049708  0.19924203    -0.05910
C2609       C  0.63426642  0.61725879  0.21147103    -0.32880
C2610       C  0.64296354  0.63084581  0.23611070     0.36180
H2611       H  0.76750148  0.67378710  0.24324685     0.16550
O2612       O  0.75755136  0.63520787  0.20100011    -0.60370
H2613       H  0.59681100  0.60090887  0.20236559     0.16560
O2614       O  0.60352721  0.62066026  0.24868286    -0.60470
H2615       H  0.60032657  0.65096666  0.24817203     0.43560
H2616       H  0.76564265  0.65670551  0.18748118     0.43510
C2617       C  0.93376597  0.65207333  0.25967204    -0.05550
C2618       C  0.92959101  0.67914626  0.24100598    -0.32980
C2619       C  0.92763568  0.66318447  0.21751176     0.36270
C2620       C  0.93050013  0.61990413  0.21255929    -0.05910
C2621       C  0.93925728  0.59559595  0.23135348    -0.32880
C2622       C  0.94087845  0.61147138  0.25483706     0.36180
H2623       H  0.92314720  0.70992549  0.24453423     0.16550
O2624       O  0.91847701  0.68733387  0.19955053    -0.60370
H2625       H  0.94141630  0.56221741  0.22770548     0.16560
O2626       O  0.94453784  0.58420917  0.27276153    -0.60470
H2627       H  0.98083776  0.60114488  0.27836565     0.43560
H2628       H  0.88245857  0.66569951  0.19369850     0.43510
C2629       C  0.98674120  0.75680054  0.46712220    -0.05550
C2630       C  0.01894068  0.74680003  0.45470926    -0.32980
C2631       C  0.01787653  0.74893553  0.42996780     0.36270
C2632       C  0.99042223  0.76841516  0.41823728    -0.05910
C2633       C  0.97118628  0.79144289  0.43209057    -0.32880
C2634       C  0.95943619  0.77548891  0.45450023     0.36180
H2635       H  0.04049115  0.73219770  0.46373027     0.16550
O2636       O  0.03819187  0.72659021  0.41736172    -0.60370
H2637       H  0.95243008  0.80911097  0.42350286     0.16560
O2638       O  0.91959810  0.77576352  0.46316188    -0.60470
H2639       H  0.88996456  0.74260430  0.45771154     0.43560
H2640       H  0.07405512  0.75253758  0.41748153     0.43510
C2641       C  0.74066854  0.53332719  0.46938840    -0.05550
C2642       C  0.71360800  0.50536580  0.44824768    -0.32980
C2643       C  0.72524708  0.52719190  0.42681295     0.36270
C2644       C  0.76394897  0.57768896  0.42671369    -0.05910
C2645       C  0.78664352  0.60665319  0.44826548    -0.32880
C2646       C  0.77537434  0.58467755  0.46952736     0.36180
H2647       H  0.68576979  0.46595302  0.44832141     0.16550
O2648       O  0.69968108  0.49845869  0.40620270    -0.60370
H2649       H  0.81412797  0.64622232  0.44868384     0.16560
O2650       O  0.79874022  0.61330638  0.49043287    -0.60470
H2651       H  0.83049101  0.61297719  0.49346838     0.43560
H2652       H  0.67127408  0.50434564  0.40263904     0.43510
C2653       C  0.71056416  0.71361520  0.41487615    -0.05550
C2654       C  0.71779746  0.76092317  0.42178474    -0.32980
C2655       C  0.72120576  0.77588815  0.44585464     0.36270
C2656       C  0.72085961  0.74483108  0.46396878    -0.05910
C2657       C  0.70972759  0.69608484  0.45682443    -0.32880
C2658       C  0.70239155  0.67998587  0.43268145     0.36180
H2659       H  0.72506414  0.78802674  0.40870791     0.16550
O2660       O  0.72956676  0.82301842  0.45158321    -0.60370
H2661       H  0.70892134  0.67093844  0.46994009     0.16560
O2662       O  0.69131588  0.63212377  0.42668127    -0.60470
H2663       H  0.72428871  0.63485645  0.42628110     0.43560
H2664       H  0.69686387  0.81780530  0.45559906     0.43510
loop_ 
_geom_bond_atom_site_label_1 
_geom_bond_atom_site_label_2 
_geom_bond_distance 
_geom_bond_site_symmetry_2 
_ccdc_geom_bond_type 
Zr1           O2   2.437       .  S
Zr1           O3   2.398       .  S
Zr1           O4   2.378       .  S
Zr1           O7   2.373       .  S
Zr1           O9   2.359       .  S
Zr1          O10   2.378       .  S
Zr1          O11   2.388       .  S
Zr1          O12   2.393       .  S
O2           H58   0.991       .  S
O2           H66   0.990       .  S
O3           C23   1.280       .  A
O4           C25   1.273       .  A
O5          Zr15   2.471       .  S
O5           C24   1.287       .  A
O6          Zr14   2.533       .  S
O6           C25   1.303       .  A
O7           C24   1.273       .  A
O8          Zr16   2.400       .  S
O8           C23   1.277       .  A
O9          Zr14   2.384       .  S
O9          Zr16   2.382       .  S
O10         Zr15   2.387       .  S
O10         Zr16   2.365       .  S
O10          H45   0.966       .  S
O11         Zr14   2.393       .  S
O11         Zr31   2.408       .  S
O11          H48   0.966       .  S
O12         Zr15   2.399       .  S
O12         Zr31   2.400       .  S
Zr13         O38   2.436       .  S
Zr13         O32   2.455       .  S
Zr13         O40   2.420       .  S
Zr13         O28   2.409       .  S
Zr13         O19   2.392       .  S
Zr13         O20   2.433       .  S
Zr13         O21   2.387       .  S
Zr13         O22   2.386       .  S
Zr14         O33   2.436       .  S
Zr14         O26   2.434       .  S
Zr14         O27   2.485       .  S
Zr14         O20   2.423       .  S
Zr14         O21   2.421       .  S
Zr15         O17   2.435       .  S
Zr15         O39   2.436       .  S
Zr15         O41   2.447       .  S
Zr15         O19   2.406       .  S
Zr15         O22   2.406       .  S
Zr16         O42   2.435       .  S
Zr16         O43   2.436       .  S
Zr16         O18   2.437       .  S
Zr16         O19   2.389       .  S
Zr16         O20   2.368       .  S
O17          H54   0.990       .  S
O18          H49   0.990   1_545  S
O18          H63   0.990       .  S
O20          H46   0.967       .  S
O21         Zr31   2.377       .  S
O22         Zr31   2.372       .  S
O22          H47   0.965       .  S
C23         C646   1.467       .  S
C24         C634   1.470       .  S
C25         C655   1.497       .  S
O26          H62   0.990       .  S
O27          C29   1.286       .  A
O28          C29   1.269       .  A
C29         C607   1.477       .  S
O30         Zr31   2.438       .  S
O30          H59   0.990       .  S
Zr31         O34   2.436       .  S
Zr31         O35   2.439       .  S
Zr31         O36   2.442       .  S
O32          C37   1.287       .  A
O33          H50   0.990       .  S
O33          H65   0.990       .  S
O34          H51   0.990       .  S
O35          H55   0.990       .  S
O35          H64   0.990       .  S
O36          C37   1.284       .  A
C37         C598   1.504       .  S
O38          H57   0.988       .  S
O38          H61   0.990       .  S
O39          H53   0.990       .  S
O39          H60   0.990       .  S
O40          C44   1.275       .  A
O41          C44   1.281       .  A
O42          H52   0.990       .  S
O43          H56   0.990       .  S
C44         C619   1.467       .  S
C67         C583   1.506       .  S
C67          C68   1.427       .  A
C67          C72   1.420       .  A
C68         C559   1.506       .  S
C68          C69   1.433       .  A
C69         C538   1.510       .  S
C69          C70   1.437       .  A
C70         C571   1.515       .  S
C70          C71   1.436       .  A
C71         C550   1.513       .  S
C71          C72   1.421       .  A
C72         C523   1.502       .  S
C73          C74   1.388       .  D
C73         C535   1.520       .  S
C73         C610   1.482       .  S
C74         C511   1.506       .  S
C74         C526   1.511       .  S
C75          C76   1.393       .  D
C75         C595   1.504       .  S
C75        C1906   1.531       .  S
C76         C499   1.516       .  S
C76         C586   1.514       .  S
C77          C78   1.384       .  D
C77         C562   1.551       .  S
C77         C622   1.488       .  S
C78         C487   1.472       .  S
C78        C1879   1.512       .  S
C79          C80   1.383       .  D
C79         C466   1.513       .  S
C79         C631   1.505       .  S
C80         C475   1.511       .  S
C80        C1786   1.480       .  S
C81         C748   1.371   1_545  D
C81         C430   1.510       .  S
C81         C643   1.453       .  S
C82         C747   1.371       .  D
C82         C415   1.464       .  S
C82        C1105   1.541       .  S
C83         C442   1.504       .  S
C83          C88   1.424       .  A
C83        C2082   1.428   1_445  A
C84         C478   1.508       .  S
C84          C85   1.429       .  A
C84        C2081   1.428       .  A
C85         C403   1.512       .  S
C85         C752   1.426       .  A
C86         C427   1.501       .  S
C86          C87   1.426       .  A
C86         C751   1.426   1_545  A
C87         C463   1.503       .  S
C87        C1420   1.425       .  A
C88         C394   1.500       .  S
C88        C1419   1.425   1_455  A
C89          C90   1.394       .  D
C89         C406   1.516       .  S
C89         C658   1.533       .  S
C90         C382   1.526       .  S
C90         C391   1.509       .  S
Zr91         O92   2.472       .  S
Zr91         O97   2.409   1_545  S
Zr91       O1425   2.463       .  S
Zr91       O1426   2.391       .  S
Zr91        O102   2.395       .  S
Zr91       O1431   2.390       .  S
Zr91        O766   2.404   1_545  S
Zr91       O1433   2.415       .  S
O92         H148   0.988       .  S
O92         H156   0.990       .  S
O93       Zr1423   2.463       .  S
O93         C113   1.283   1_645  A
O94       Zr1423   2.391   1_455  S
O94         C115   1.264       .  A
O95        Zr105   2.489       .  S
O95         C114   1.284       .  A
O96        Zr104   2.508   1_556  S
O96         C115   1.294       .  A
O97         C780   1.265       .  A
O98        Zr772   2.379       .  S
O98         C779   1.274       .  A
O99        Zr104   2.395   1_556  S
O99        Zr106   2.374   1_545  S
O99       Zr1423   2.390   1_455  S
O100       Zr105   2.430       .  S
O100       Zr757   2.404       .  S
O100      Zr2104   2.381       .  S
O100        H135   0.966       .  S
O101       Zr104   2.408   1_656  S
O101      Zr1423   2.415       .  S
O101      Zr1453   2.369   1_556  S
O101        H138   0.966       .  S
O102       Zr121   2.378   1_556  S
O102       Zr771   2.416   1_545  S
Zr103       O794   2.448   1_655  S
Zr103       O118   2.330   1_665  S
Zr103      O1454   2.445   1_565  S
Zr103      O2128   2.387       .  S
Zr103       O110   2.391   1_665  S
Zr103       O111   2.379   1_665  S
Zr103      O2107   2.378       .  S
Zr103      O1444   2.378       .  S
Zr104       O123   2.436       .  S
Zr104       O116   2.434   1_554  S
Zr104       O117   2.513       .  S
Zr104       O110   2.404       .  S
Zr104       O111   2.392       .  S
Zr105       O107   2.433   1_556  S
Zr105       O129   2.433       .  S
Zr105       O131   2.527   1_556  S
Zr105       O109   2.392   1_556  S
Zr105       O768   2.416       .  S
Zr105       O778   2.397   1_556  S
Zr106       O108   2.438       .  S
Zr106       O798   2.435   1_455  S
Zr106       O799   2.437       .  S
Zr106       O764   2.380       .  S
Zr106       O110   2.381   1_566  S
Zr106      O2098   2.381   1_455  S
Zr106      O2107   2.384   1_456  S
O107        H144   0.990       .  S
O108        H139   0.990       .  S
O108        H153   0.990   1_565  S
O109      Zr2101   2.378       .  S
O109      Zr2104   2.384   1_554  S
O110        H136   0.966       .  S
O111      Zr1453   2.373   1_455  S
O112       Zr121   2.370   1_565  S
O112      Zr1435   2.378       .  S
O112       Zr771   2.397   1_554  S
O112        H137   0.964       .  S
C113        O764   1.274       .  A
C113        C367   1.465       .  S
C114        O763   1.265       .  A
C114        C343   1.492       .  S
C115        C358   1.489       .  S
O116        H152   0.990       .  S
O117        C119   1.298       .  A
O118        C119   1.267       .  A
C119        C514   1.490       .  S
O120       Zr121   2.439       .  S
O120        H149   0.990       .  S
Zr121       O124   2.437       .  S
Zr121       O125   2.438       .  S
Zr121       O126   2.385       .  S
Zr121      O1433   2.369   1_554  S
Zr121      O1443   2.373       .  S
O122      Zr1435   2.445   1_545  S
O122        C127   1.288       .  A
O123        H140   0.990       .  S
O123        H155   0.990       .  S
O124        H141   0.990       .  S
O125        H145   0.990       .  S
O125        H154   0.990       .  S
O126        C127   1.277       .  A
C127        C490   1.475       .  S
O128       Zr769   2.448   1_455  S
O128        H147   0.990       .  S
O128        H817   0.990       .  S
O129        H143   0.990       .  S
O129        H150   0.990       .  S
O130      Zr2101   2.387       .  S
O130        C134   1.262       .  A
O131        C134   1.298       .  A
O132       Zr772   2.435   1_655  S
O132        H142   0.990       .  S
O133       Zr772   2.437       .  S
O133        H146   0.990   1_556  S
C134        C502   1.490       .  S
H151        O794   0.990       .  S
Zr157       O158   2.434       .  S
Zr157       O159   2.410       .  S
Zr157       O160   2.405       .  S
Zr157       O163   2.401       .  S
Zr157       O165   2.381       .  S
Zr157       O166   2.397       .  S
Zr157       O167   2.408       .  S
Zr157       O168   2.400       .  S
O158        H214   0.990       .  S
O158        H222   0.990       .  S
O159        C179   1.279       .  A
O160        C181   1.273       .  A
O161       Zr171   2.497       .  S
O161        C180   1.290       .  A
O162       Zr170   2.435       .  S
O162        C181   1.282       .  A
O163        C180   1.271       .  A
O164       Zr172   2.436       .  S
O164        C179   1.283       .  A
O165       Zr170   2.402       .  S
O165       Zr172   2.375       .  S
O166       Zr171   2.427       .  S
O166       Zr172   2.369       .  S
O166        H201   0.966       .  S
O167       Zr170   2.416       .  S
O167       Zr187   2.382       .  S
O167        H204   0.966       .  S
O168       Zr171   2.422       .  S
O168       Zr187   2.376       .  S
Zr169       O194   2.446       .  S
Zr169       O188   2.436       .  S
Zr169       O196   2.392       .  S
Zr169       O184   2.388       .  S
Zr169       O175   2.397       .  S
Zr169       O176   2.413       .  S
Zr169       O177   2.370       .  S
Zr169       O178   2.387       .  S
Zr170       O189   2.436       .  S
Zr170      O1514   2.434   1_455  S
Zr170       O183   2.464   1_455  S
Zr170       O176   2.415       .  S
Zr170       O177   2.400       .  S
Zr171       O173   2.434       .  S
Zr171       O195   2.433       .  S
Zr171       O197   2.563       .  S
Zr171       O175   2.394       .  S
Zr171       O178   2.379       .  S
Zr172       O198   2.434       .  S
Zr172       O199   2.435       .  S
Zr172       O174   2.437   1_455  S
Zr172       O175   2.400       .  S
Zr172       O176   2.400       .  S
O173        H210   0.990       .  S
O174        H205   0.990       .  S
O174        H219   0.990       .  S
O176        H202   0.965       .  S
O177       Zr187   2.357       .  S
O178       Zr187   2.380       .  S
O178        H203   0.964       .  S
C179        C319   1.483       .  S
C180        C307   1.487       .  S
C181        C331   1.447       .  S
O182      Zr1502   2.434       .  S
O182        H218   0.990       .  S
O183        C185   1.270   1_655  A
O184        C185   1.261       .  A
C185        C451   1.483       .  S
O186       Zr187   2.439       .  S
O186        H215   0.990       .  S
Zr187       O190   2.438       .  S
Zr187       O191   2.436       .  S
Zr187       O192   2.393       .  S
O188        C193   1.289       .  A
O189        H206   0.990   1_455  S
O189        H221   0.990       .  S
O190        H207   0.990       .  S
O191        H211   0.990       .  S
O191        H220   0.990       .  S
O192        C193   1.278       .  A
C193        C418   1.471       .  S
O194        H213   0.990       .  S
O194        H217   0.988       .  S
O195        H209   0.990       .  S
O195        H216   0.990       .  S
O196        C200   1.268       .  A
O197        C200   1.302       .  A
O198        H208   0.990       .  S
O199        H212   0.990       .  S
C200        C379   1.529       .  S
C223        C224   1.412       .  D
C223        C298   1.555       .  S
C223        C346   1.490       .  S
C224        C310   1.506       .  S
C224        C952   1.561       .  S
C225        C250   1.520       .  S
C225        C226   1.429       .  A
C225        C230   1.435       .  A
C226        C295   1.481       .  S
C226        C227   1.419       .  A
C227        C274   1.507       .  S
C227        C228   1.417       .  A
C228        C235   1.516       .  S
C228        C229   1.436       .  A
C229        C283   1.486       .  S
C229        C230   1.443       .  A
C230        C259   1.539       .  S
C231        C232   1.392       .  D
C231        C247   1.526       .  S
C231        C355   1.489       .  S
C232        C322   1.480       .  S
C232       C1570   1.529   1_455  S
C233        C234   1.381       .  D
C233        C370   1.502       .  S
C233        C928   1.518       .  S
C234        C334   1.481       .  S
C234       C1603   1.538   1_455  S
C235        C236   1.398       .  A
C235        C240   1.416       .  A
C236        C237   1.403       .  A
C236        H241   1.083       .  S
C237        C238   1.424       .  A
C237        O242   1.369       .  S
C238        C239   1.410       .  A
C238       C1564   1.529       .  S
C239        C240   1.416       .  A
C239        H243   1.082       .  S
C240        O244   1.369       .  S
O242        H246   0.992       .  S
O244        H245   0.992       .  S
C247        C248   1.405       .  A
C247        C252   1.423       .  A
C248        C249   1.400       .  A
C248        H253   1.076       .  S
C249        C250   1.416       .  A
C249        O254   1.367       .  S
C250        C251   1.405       .  A
C251        C252   1.402       .  A
C251        H255   1.083       .  S
C252        O256   1.371       .  S
O254        H258   0.992       .  S
O256        H257   0.992       .  S
C259        C260   1.413       .  A
C259        C264   1.421       .  A
C260        C261   1.404       .  A
C260        H265   1.075       .  S
C261        C262   1.406       .  A
C261        O932   1.372   1_545  S
C262        C263   1.404       .  A
C262        C899   1.518   1_545  S
C263        C264   1.417       .  A
C263        H267   1.078       .  S
C264        O268   1.375       .  S
O266        C927   1.372       .  S
O266        H270   0.992       .  S
O268        H269   0.992       .  S
C271        C272   1.415       .  A
C271        C276   1.426       .  A
C271       C1566   1.538       .  S
C272        C273   1.419       .  A
C272        H277   1.079       .  S
C273        C274   1.414       .  A
C273        O278   1.373       .  S
C274        C275   1.393       .  A
C275        C276   1.396       .  A
C275        H279   1.084       .  S
C276        O280   1.371       .  S
O278        H282   0.992       .  S
O280        H281   0.992       .  S
C283        C284   1.393       .  A
C283        C288   1.394       .  A
C284        C285   1.406       .  A
C284        H289   1.084       .  S
C285        C286   1.436   1_545  A
C285        O290   1.369   1_545  S
C286        C287   1.420   1_565  A
C286        C890   1.561       .  S
C287        C288   1.395       .  A
C287        H291   1.052       .  S
C288        O292   1.373       .  S
O290        H294   0.993       .  S
O292        H293   0.992       .  S
C295        C296   1.383       .  A
C295        C300   1.409       .  A
C296        C297   1.394       .  A
C296        H301   1.085       .  S
C297        C298   1.440       .  A
C297        O302   1.370       .  S
C298        C299   1.415       .  A
C299        C300   1.395       .  A
C299        H303   1.070       .  S
C300        O304   1.376       .  S
O302        H306   0.993       .  S
O304        H305   0.990       .  S
C307        C308   1.407       .  A
C307        C312   1.409       .  A
C308        C309   1.407       .  A
C308        H313   1.081       .  S
C309        C310   1.411       .  A
C309        O314   1.371       .  S
C310        C311   1.412       .  A
C311        C312   1.409       .  A
C311        H315   1.083       .  S
C312        O316   1.371       .  S
O314        H318   0.992       .  S
O316        H317   0.992       .  S
C319        C320   1.407       .  A
C319        C324   1.412       .  A
C320        C321   1.390       .  A
C320        H325   1.081       .  S
C321        C322   1.403       .  A
C321        O326   1.373       .  S
C322        C323   1.404       .  A
C323        C324   1.402       .  A
C323        H327   1.084       .  S
C324        O328   1.371       .  S
O326        H330   0.992       .  S
O328        H329   0.992       .  S
C331        C332   1.396       .  A
C331        C336   1.396       .  A
C332        C333   1.405       .  A
C332        H337   1.083       .  S
C333        C334   1.416       .  A
C333        O338   1.375       .  S
C334        C335   1.401       .  A
C335        C336   1.386       .  A
C335        H339   1.083       .  S
C336        O340   1.368       .  S
O338       H1008   0.992       .  S
O340       H1673   0.992       .  S
H341       O1672   0.992       .  S
H342       O1004   0.992   1_545  S
C343        C344   1.401       .  A
C343        C348   1.410       .  A
C344        C345   1.392       .  A
C344        H349   1.065       .  S
C345        C346   1.402       .  A
C345        O350   1.374       .  S
C346        C347   1.416       .  A
C347        C348   1.418       .  A
C347        H351   1.083       .  S
C348        O352   1.370       .  S
O350        H354   0.990       .  S
O352        H353   0.992       .  S
C355        C356   1.387       .  A
C355        C360   1.420       .  A
C356        C357   1.389       .  A
C356        H361   1.084       .  S
C357        C358   1.419       .  A
C357        O362   1.366   1_455  S
C358        C359   1.402       .  A
C359        C360   1.410       .  A
C359        H363   1.083       .  S
C360        O364   1.372       .  S
O362        H366   0.992       .  S
O364        H365   0.992       .  S
C367        C372   1.400   1_565  A
C367       C2366   1.398   1_455  A
C368        C369   1.406       .  A
C368       C2365   1.397       .  A
C368        H373   1.076       .  S
C369       C1702   1.414       .  A
C369        O374   1.373       .  S
C370       C1701   1.414   1_455  A
C370       C1037   1.410       .  A
C371        C372   1.386   1_565  A
C371       C1036   1.410       .  A
C371        H375   1.073   1_565  S
C372        O376   1.373       .  S
O374        H378   0.991       .  S
O376        H377   0.992       .  S
C379        C380   1.418       .  A
C379        C384   1.420       .  A
C380        C381   1.436       .  A
C380        H385   1.082       .  S
C381        C382   1.422       .  A
C381        O386   1.370       .  S
C382        C383   1.393       .  A
C383        C384   1.394       .  A
C383        H387   1.085       .  S
C384        O388   1.369       .  S
O386        H390   0.991       .  S
O388        H389   0.992       .  S
C391        C392   1.410       .  A
C391        C396   1.413       .  A
C392        C393   1.405       .  A
C392        H397   1.081       .  S
C393        C394   1.410       .  A
C393        O398   1.373       .  S
C394        C395   1.404       .  A
C395        C396   1.393       .  A
C395        H399   1.083       .  S
C396        O400   1.371       .  S
O398        H402   0.991       .  S
O400        H401   0.992       .  S
C403        C404   1.408       .  A
C403        C408   1.408       .  A
C404        C405   1.401       .  A
C404        H409   1.082       .  S
C405        C406   1.415       .  A
C405        O410   1.367       .  S
C406        C407   1.413       .  A
C407        C408   1.402       .  A
C407        H411   1.083       .  S
C408        O412   1.375       .  S
O410        H414   0.992       .  S
O412        H413   0.991       .  S
C415        C416   1.395       .  A
C415        C420   1.401       .  A
C416        C417   1.389       .  A
C416        H421   1.083       .  S
C417        C418   1.404       .  A
C417        O422   1.361       .  S
C418        C419   1.410       .  A
C419        C420   1.389       .  A
C419        H423   1.083       .  S
C420       O1090   1.372       .  S
O422        H426   0.989       .  S
O424       C1086   1.372       .  S
O424        H425   0.991       .  S
C427        C428   1.402   1_545  A
C427       C1098   1.411       .  A
C428        C429   1.399       .  A
C428        H433   1.083       .  S
C429        C430   1.413   1_565  A
C429        O434   1.372       .  S
C430       C1097   1.408       .  A
C431        C432   1.401       .  A
C431       C1096   1.408       .  A
C431        H435   1.081       .  S
C432       C1093   1.411       .  A
C432        O436   1.371       .  S
O434        H438   0.992       .  S
O436        H437   0.992       .  S
C439        C440   1.418       .  A
C439       C1110   1.433   1_545  A
C439        C748   1.541   1_545  S
C440        C441   1.407       .  A
C440        H445   1.069       .  S
C441        C442   1.408       .  A
C441        O446   1.374       .  S
C442       C1109   1.393   1_545  A
C443        C444   1.394       .  A
C443       C1108   1.393       .  A
C443        H447   1.084       .  S
C444       C1105   1.433       .  A
C444        O448   1.372       .  S
O446        H450   0.992       .  S
O448        H449   0.993       .  S
C451        C452   1.407       .  A
C451       C1788   1.411   1_455  A
C452        C453   1.380       .  A
C452        H457   1.081       .  S
C453        C454   1.400   1_455  A
C453        O458   1.374       .  S
C454       C1787   1.409       .  A
C454       C1412   1.480       .  S
C455        C456   1.412       .  A
C455       C1786   1.409       .  A
C455        H459   1.083       .  S
C456       C1783   1.411       .  A
C456        O460   1.370       .  S
O458        H462   0.992       .  S
O460        H461   0.992       .  S
C463        C464   1.401       .  A
C463       C1800   1.412       .  A
C464        C465   1.393       .  A
C464        H469   1.083       .  S
C465        C466   1.419       .  A
C465        O470   1.372       .  S
C466       C1799   1.410       .  A
C467        C468   1.408   1_455  A
C467       C1798   1.410   1_455  A
C467        H471   1.079       .  S
C468       C1795   1.412       .  A
C468        O472   1.374   1_655  S
O470        H474   0.989       .  S
O472        H473   0.992       .  S
C475        C480   1.414       .  A
C475       C1808   1.407       .  A
C476        C477   1.405       .  A
C476       C1807   1.407   1_455  A
C476        H481   1.081       .  S
C477       C1810   1.415   1_455  A
C477        O482   1.376       .  S
C478        C479   1.402       .  A
C478       C1809   1.415       .  A
C479        C480   1.391       .  A
C479        H483   1.083       .  S
C480        O484   1.369       .  S
O482        H486   0.992       .  S
O484        H485   0.992       .  S
C487        C488   1.406       .  A
C487        C492   1.402       .  A
C488        C489   1.401       .  A
C488        H493   1.084       .  S
C489        C490   1.408       .  A
C489       O1160   1.373       .  S
C490        C491   1.410       .  A
C491        C492   1.392       .  A
C491        H495   1.084       .  S
C492        O496   1.375       .  S
O494       C1155   1.373       .  S
O494        H498   0.991       .  S
O496        H497   0.992       .  S
C499        C500   1.409       .  A
C499        C504   1.415       .  A
C500        C501   1.418       .  A
C500        H505   1.083       .  S
C501        C502   1.417       .  A
C501        O506   1.371       .  S
C502        C503   1.398       .  A
C503        C504   1.404       .  A
C503        H507   1.083       .  S
C504        O508   1.371       .  S
O506        H510   0.992       .  S
O508        H509   0.990       .  S
C511        C512   1.392       .  A
C511        C516   1.426       .  A
C512        C513   1.383       .  A
C512        H517   1.079       .  S
C513        C514   1.419       .  A
C513        O518   1.373       .  S
C514        C515   1.399       .  A
C515        C516   1.414       .  A
C515        H519   1.083       .  S
C516        O520   1.373       .  S
O518        H522   0.993   1_545  S
O520        H521   0.991       .  S
C523        C524   1.402       .  A
C523        C528   1.408       .  A
C524        C525   1.395       .  A
C524        H529   1.083       .  S
C525        C526   1.413       .  A
C525        O530   1.372       .  S
C526        C527   1.409       .  A
C527        C528   1.402       .  A
C527        H531   1.076       .  S
C528        O532   1.375       .  S
O530        H534   0.991       .  S
O532        H533   0.992       .  S
C535        C540   1.416       .  A
C535       C1202   1.410       .  A
C536        C537   1.402       .  A
C536       C1201   1.410       .  A
C536        H541   1.083       .  S
C537        C538   1.409       .  A
C537        O542   1.375       .  S
C538        C539   1.410       .  A
C539       C1206   1.406       .  A
C539        H543   1.082       .  S
C540       C1205   1.406   1_545  A
C540        O544   1.371       .  S
O542        H546   0.992       .  S
O544        H545   0.992       .  S
C547        C548   1.411       .  A
C547        C552   1.411   1_655  A
C547       C1410   1.512       .  S
C548        C549   1.401   1_655  A
C548        H553   1.078       .  S
C549        C550   1.406       .  A
C549        O554   1.373       .  S
C550        C551   1.413       .  A
C551        C552   1.408       .  A
C551        H555   1.083       .  S
C552        O556   1.370       .  S
O554        H558   0.992       .  S
O556        H557   0.991       .  S
C559        C560   1.396       .  A
C559        C564   1.403       .  A
C560        C561   1.404       .  A
C560        H565   1.084       .  S
C561       C1228   1.432       .  A
C561        O566   1.365       .  S
C562       C1227   1.432       .  A
C562       C1229   1.417       .  A
C563        C564   1.402       .  A
C563       C1228   1.417       .  A
C563       H1233   1.067       .  S
C564        O568   1.371       .  S
O566        H570   0.991       .  S
H567       C1229   1.067       .  S
O568        H569   0.991       .  S
C571        C572   1.394       .  A
C571        C576   1.418       .  A
C572        C573   1.390   1_455  A
C572        H577   1.083       .  S
C573        C574   1.428       .  A
C573       O1910   1.372       .  S
C574        C575   1.413   1_655  A
C574       C1407   1.531       .  S
C575        C576   1.420       .  A
C575        H579   1.080       .  S
C576        O580   1.373       .  S
O578       C1905   1.372       .  S
O578        H582   0.993       .  S
O580        H581   0.992       .  S
C583        C584   1.406       .  A
C583        C588   1.410       .  A
C584        C585   1.401       .  A
C584        H589   1.083       .  S
C585        C586   1.414       .  A
C585        O590   1.369       .  S
C586        C587   1.408       .  A
C587        C588   1.397       .  A
C587        H591   1.083       .  S
C588        O592   1.371       .  S
O590        H594   0.992       .  S
O592        H593   0.991       .  S
C595        C596   1.394       .  A
C595        C600   1.416       .  A
C596        C597   1.392       .  A
C596        H601   1.085       .  S
C597        C598   1.410       .  A
C597        O602   1.354       .  S
C598        C599   1.409       .  A
C599        C600   1.414       .  A
C599        H603   1.083       .  S
C600        O604   1.373       .  S
O602        H606   0.991       .  S
O604        H605   0.992       .  S
C607        C608   1.395       .  A
C607        C612   1.410       .  A
C608        C609   1.379       .  A
C608        H613   1.069       .  S
C609        C610   1.391       .  A
C609        O614   1.375       .  S
C610        C611   1.412       .  A
C611        C612   1.417       .  A
C611        H615   1.082       .  S
C612        O616   1.370       .  S
O614        H618   0.992       .  S
O616        H617   0.991       .  S
C619        C620   1.404       .  A
C619        C624   1.404       .  A
C620        C621   1.399       .  A
C620        H625   1.084       .  S
C621        C622   1.409       .  A
C621        O626   1.372       .  S
C622        C623   1.406       .  A
C623        C624   1.400       .  A
C623        H627   1.084       .  S
C624        O628   1.371       .  S
O626        H630   0.992       .  S
O628        H629   0.992       .  S
C631        C632   1.418       .  A
C631        C636   1.406       .  A
C632        C633   1.409       .  A
C632        H637   1.082       .  S
C633        C634   1.404       .  A
C633        O638   1.371       .  S
C634        C635   1.401       .  A
C635        C636   1.388       .  A
C635        H639   1.077       .  S
C636        O640   1.372       .  S
O638        H642   0.991       .  S
O640        H641   0.991       .  S
C643        C644   1.397       .  A
C643        C648   1.400       .  A
C644        C645   1.393       .  A
C644        H649   1.084   1_545  S
C645        C646   1.413       .  A
C645        O650   1.371   1_545  S
C646        C647   1.404       .  A
C647        C648   1.384       .  A
C647        H651   1.082       .  S
C648        O652   1.373       .  S
O650        H654   0.992   1_565  S
O652        H653   0.991       .  S
C655        C656   1.405       .  A
C655        C660   1.414       .  A
C656        C657   1.413       .  A
C656        H661   1.083       .  S
C657        C658   1.422       .  A
C657        O662   1.372       .  S
C658        C659   1.408       .  A
C659        C660   1.410       .  A
C659        H663   1.083       .  S
C660        O664   1.368       .  S
O662        H666   0.992       .  S
O664        H665   0.985       .  S
Zr667       O668   2.437       .  S
Zr667       O669   2.398       .  S
Zr667       O670   2.378       .  S
Zr667       O673   2.373       .  S
Zr667       O675   2.359       .  S
Zr667       O676   2.378       .  S
Zr667       O677   2.388       .  S
Zr667       O678   2.393       .  S
O668        H724   0.991       .  S
O668        H732   0.990       .  S
O669        C689   1.280       .  A
O670        C691   1.273       .  A
O671       Zr681   2.471       .  S
O671        C690   1.287       .  A
O672       Zr680   2.533       .  S
O672        C691   1.303       .  A
O673        C690   1.273       .  A
O674       Zr682   2.400       .  S
O674        C689   1.277       .  A
O675       Zr680   2.384       .  S
O675       Zr682   2.382       .  S
O676       Zr681   2.387       .  S
O676       Zr682   2.365       .  S
O676        H711   0.966       .  S
O677       Zr680   2.393       .  S
O677       Zr697   2.408       .  S
O677        H714   0.966       .  S
O678       Zr681   2.399       .  S
O678       Zr697   2.400       .  S
Zr679       O704   2.436       .  S
Zr679       O698   2.455       .  S
Zr679       O706   2.420       .  S
Zr679       O694   2.409       .  S
Zr679       O685   2.392       .  S
Zr679       O686   2.433       .  S
Zr679       O687   2.387       .  S
Zr679       O688   2.386       .  S
Zr680       O699   2.436       .  S
Zr680       O692   2.434       .  S
Zr680       O693   2.485       .  S
Zr680       O686   2.423       .  S
Zr680       O687   2.421       .  S
Zr681       O683   2.435       .  S
Zr681       O705   2.436       .  S
Zr681       O707   2.447       .  S
Zr681       O685   2.406       .  S
Zr681       O688   2.406       .  S
Zr682       O708   2.435       .  S
Zr682       O709   2.436       .  S
Zr682       O684   2.437       .  S
Zr682       O685   2.389       .  S
Zr682       O686   2.368       .  S
O683        H720   0.990       .  S
O684        H715   0.990       .  S
O684        H729   0.990       .  S
O686        H712   0.967       .  S
O687       Zr697   2.377       .  S
O688       Zr697   2.372       .  S
O688        H713   0.965       .  S
C689       C1312   1.467       .  S
C690       C1300   1.470       .  S
C691       C1321   1.497       .  S
O692        H728   0.990       .  S
O693        C695   1.286       .  A
O694        C695   1.269       .  A
C695       C1273   1.477       .  S
O696       Zr697   2.438       .  S
O696        H725   0.990       .  S
Zr697       O700   2.436       .  S
Zr697       O701   2.439       .  S
Zr697       O702   2.442       .  S
O698        C703   1.288       .  A
O699        H716   0.990       .  S
O699        H731   0.990       .  S
O700        H717   0.990       .  S
O701        H721   0.990       .  S
O701        H730   0.990       .  S
O702        C703   1.284       .  A
C703       C1264   1.504       .  S
O704        H723   0.988       .  S
O704        H727   0.990       .  S
O705        H719   0.990       .  S
O705        H726   0.990       .  S
O706        C710   1.275       .  A
O707        C710   1.281       .  A
O708        H718   0.990       .  S
O709        H722   0.990       .  S
C710       C1285   1.467       .  S
C733       C1249   1.506       .  S
C733        C734   1.427       .  A
C733        C738   1.420       .  A
C734       C1225   1.506       .  S
C734        C735   1.433       .  A
C735       C1204   1.510       .  S
C735        C736   1.437       .  A
C736       C1237   1.515       .  S
C736        C737   1.436       .  A
C737       C1216   1.513       .  S
C737        C738   1.421       .  A
C738       C1189   1.502       .  S
C739        C740   1.388       .  D
C739       C1201   1.520       .  S
C739       C1276   1.482       .  S
C740       C1177   1.506       .  S
C740       C1192   1.511       .  S
C741        C742   1.393       .  D
C741       C2572   1.531       .  S
C741       C1261   1.504       .  S
C742       C1165   1.516       .  S
C742       C1252   1.514       .  S
C743        C744   1.384       .  D
C743       C1228   1.551       .  S
C743       C1288   1.488       .  S
C744       C1153   1.472       .  S
C744       C2545   1.512       .  S
C745        C746   1.383       .  D
C745       C1132   1.513       .  S
C745       C1297   1.505       .  S
C746       C2452   1.480       .  S
C746       C1141   1.511       .  S
C747       C1096   1.510       .  S
C747       C1309   1.453       .  S
C748       C1081   1.464       .  S
C749       C1108   1.504       .  S
C749       C1416   1.428   1_455  A
C749        C754   1.424       .  A
C750       C1144   1.508       .  S
C750       C1415   1.428   1_565  A
C750        C751   1.429       .  A
C751       C1069   1.512       .  S
C752       C1093   1.501       .  S
C752        C753   1.426       .  A
C753       C1129   1.503       .  S
C753       C2086   1.425       .  A
C754       C1060   1.500       .  S
C754       C2085   1.425   1_455  A
C755        C756   1.394       .  D
C755       C1072   1.516       .  S
C755       C1324   1.533       .  S
C756       C1048   1.525       .  S
C756       C1057   1.509       .  S
Zr757       O758   2.472       .  S
Zr757      O2091   2.463       .  S
Zr757      O2092   2.391       .  S
Zr757       O763   2.409       .  S
Zr757      O2097   2.390       .  S
Zr757      O2099   2.415       .  S
Zr757       O768   2.395       .  S
O758        H814   0.988       .  S
O758        H822   0.990       .  S
O759      Zr2089   2.463       .  S
O759        C779   1.283   1_655  A
O760      Zr2089   2.391   1_455  S
O760        C781   1.264       .  A
O761       Zr771   2.489       .  S
O761        C780   1.284       .  A
O762       Zr770   2.508   1_556  S
O762        C781   1.294       .  A
O765      Zr2089   2.390   1_455  S
O765       Zr770   2.395   1_556  S
O765       Zr772   2.374       .  S
O766       Zr771   2.430       .  S
O766      Zr1438   2.381       .  S
O766        H801   0.966       .  S
O767      Zr2089   2.415       .  S
O767       Zr770   2.408   1_656  S
O767      Zr2119   2.369   1_556  S
O767        H804   0.966       .  S
O768       Zr787   2.378   1_556  S
Zr769      O2120   2.445       .  S
Zr769      O1462   2.387       .  S
Zr769       O784   2.330   1_655  S
Zr769      O1441   2.378       .  S
Zr769       O776   2.391   1_655  S
Zr769       O777   2.379   1_655  S
Zr769      O2110   2.378       .  S
Zr770       O789   2.436       .  S
Zr770       O782   2.434   1_554  S
Zr770       O783   2.513       .  S
Zr770       O776   2.404       .  S
Zr770       O777   2.392       .  S
Zr771       O773   2.433   1_556  S
Zr771       O795   2.433       .  S
Zr771       O797   2.527   1_556  S
Zr771       O775   2.392   1_556  S
Zr772       O774   2.438       .  S
Zr772      O1432   2.381   1_455  S
Zr772      O1441   2.384   1_456  S
Zr772       O776   2.381   1_556  S
O773        H810   0.990       .  S
O774        H805   0.990       .  S
O774        H819   0.990       .  S
O775      Zr1435   2.378       .  S
O775      Zr1438   2.384   1_554  S
O776        H802   0.966       .  S
O777      Zr2119   2.373   1_455  S
O778      Zr2101   2.378       .  S
O778       Zr787   2.370       .  S
O778        H803   0.964       .  S
C779       C1033   1.465       .  S
C780       C1009   1.492       .  S
C781       C1024   1.489       .  S
O782        H818   0.990       .  S
O783        C785   1.298       .  A
O784        C785   1.267       .  A
C785       C1180   1.490       .  S
O786       Zr787   2.439       .  S
O786        H815   0.990       .  S
Zr787       O790   2.437       .  S
Zr787       O791   2.438       .  S
Zr787       O792   2.385       .  S
Zr787      O2099   2.369   1_554  S
Zr787      O2109   2.373       .  S
O788      Zr2101   2.445       .  S
O788        C793   1.288       .  A
O789        H806   0.990       .  S
O789        H821   0.990       .  S
O790        H807   0.990       .  S
O791        H811   0.990       .  S
O791        H820   0.990       .  S
O792        C793   1.277       .  A
C793       C1156   1.475       .  S
O794        H813   0.990       .  S
O795        H809   0.990       .  S
O795        H816   0.990       .  S
O796      Zr1435   2.387       .  S
O796        C800   1.262       .  A
O797        C800   1.298       .  A
O798        H808   0.990       .  S
O799        H812   0.990   1_556  S
C800       C1168   1.490       .  S
Zr823       O824   2.435       .  S
Zr823       O825   2.410       .  S
Zr823       O826   2.405       .  S
Zr823       O829   2.401       .  S
Zr823       O831   2.381       .  S
Zr823       O832   2.397       .  S
Zr823       O833   2.408       .  S
Zr823       O834   2.400       .  S
O824        H880   0.990       .  S
O824        H888   0.990       .  S
O825        C845   1.279       .  A
O826        C847   1.273       .  A
O827       Zr837   2.497       .  S
O827        C846   1.290       .  A
O828       Zr836   2.435       .  S
O828        C847   1.282       .  A
O829        C846   1.271       .  A
O830       Zr838   2.436       .  S
O830        C845   1.283       .  A
O831       Zr836   2.402       .  S
O831       Zr838   2.375       .  S
O832       Zr837   2.427       .  S
O832       Zr838   2.369       .  S
O832        H867   0.966       .  S
O833       Zr836   2.416       .  S
O833       Zr853   2.382       .  S
O833        H870   0.966       .  S
O834       Zr837   2.422       .  S
O834       Zr853   2.376       .  S
Zr835       O860   2.446       .  S
Zr835       O854   2.436       .  S
Zr835       O862   2.392       .  S
Zr835       O850   2.388       .  S
Zr835       O841   2.397       .  S
Zr835       O842   2.413       .  S
Zr835       O843   2.370       .  S
Zr835       O844   2.387       .  S
Zr836       O855   2.436       .  S
Zr836      O2180   2.435   1_455  S
Zr836       O849   2.464   1_455  S
Zr836       O842   2.415       .  S
Zr836       O843   2.400       .  S
Zr837       O839   2.434       .  S
Zr837       O861   2.433       .  S
Zr837       O863   2.563       .  S
Zr837       O841   2.394       .  S
Zr837       O844   2.379       .  S
Zr838       O864   2.434       .  S
Zr838       O865   2.435       .  S
Zr838       O840   2.437   1_455  S
Zr838       O841   2.400       .  S
Zr838       O842   2.400       .  S
O839        H876   0.990       .  S
O840        H871   0.990       .  S
O840        H885   0.990       .  S
O842        H868   0.965       .  S
O843       Zr853   2.357       .  S
O844       Zr853   2.380       .  S
O844        H869   0.964       .  S
C845        C985   1.483       .  S
C846        C973   1.487       .  S
C847        C997   1.447       .  S
O848      Zr2168   2.435       .  S
O848        H884   0.990       .  S
O849        C851   1.270   1_655  A
O850        C851   1.261       .  A
C851       C1117   1.483       .  S
O852       Zr853   2.439   1_545  S
O852        H881   0.990       .  S
Zr853       O856   2.438       .  S
Zr853       O857   2.436       .  S
Zr853       O858   2.393       .  S
O854        C859   1.289       .  A
O855        H872   0.990   1_455  S
O855        H887   0.990       .  S
O856        H873   0.990   1_565  S
O857        H877   0.990   1_565  S
O857        H886   0.990       .  S
O858        C859   1.278       .  A
C859       C1084   1.471       .  S
O860        H879   0.990       .  S
O860        H883   0.988       .  S
O861        H875   0.990       .  S
O861        H882   0.990       .  S
O862        C866   1.268       .  A
O863        C866   1.301       .  A
O864        H874   0.990       .  S
O865        H878   0.990       .  S
C866       C1045   1.529       .  S
C889        C890   1.412       .  D
C889        C964   1.555       .  S
C889       C1012   1.490       .  S
C890        C976   1.506       .  S
C891        C916   1.520       .  S
C891        C892   1.429       .  A
C891        C896   1.435       .  A
C892        C961   1.481       .  S
C892        C893   1.419       .  A
C893        C940   1.507       .  S
C893        C894   1.417       .  A
C894        C901   1.516       .  S
C894        C895   1.436       .  A
C895        C949   1.486       .  S
C895        C896   1.443       .  A
C896        C925   1.539       .  S
C897        C898   1.392       .  D
C897        C913   1.526       .  S
C897       C1021   1.489       .  S
C898       C2236   1.529   1_455  S
C898        C988   1.480       .  S
C899        C900   1.381       .  D
C899       C1036   1.502       .  S
C900       C2269   1.538   1_455  S
C900       C1000   1.481       .  S
C901        C902   1.398       .  A
C901        C906   1.416       .  A
C902        C903   1.403       .  A
C902        H907   1.083       .  S
C903        C904   1.424       .  A
C903        O908   1.369       .  S
C904        C905   1.410       .  A
C904       C2230   1.529       .  S
C905        C906   1.416       .  A
C905        H909   1.082       .  S
C906        O910   1.369       .  S
O908        H912   0.992       .  S
O910        H911   0.992       .  S
C913        C914   1.405       .  A
C913        C918   1.423       .  A
C914        C915   1.400       .  A
C914        H919   1.076       .  S
C915        C916   1.416       .  A
C915        O920   1.367       .  S
C916        C917   1.405       .  A
C917        C918   1.402       .  A
C917        H921   1.083       .  S
C918        O922   1.371       .  S
O920        H924   0.992       .  S
O922        H923   0.992       .  S
C925        C926   1.413       .  A
C925        C930   1.421       .  A
C926        C927   1.404       .  A
C926        H931   1.075       .  S
C927        C928   1.406       .  A
C928        C929   1.404       .  A
C929        C930   1.417       .  A
C929        H933   1.078       .  S
C930        O934   1.375       .  S
O932        H936   0.992       .  S
O934        H935   0.992       .  S
C937        C938   1.415       .  A
C937        C942   1.426       .  A
C937       C2232   1.538       .  S
C938        C939   1.419       .  A
C938        H943   1.079       .  S
C939        C940   1.414       .  A
C939        O944   1.373       .  S
C940        C941   1.393       .  A
C941        C942   1.396       .  A
C941        H945   1.084       .  S
C942        O946   1.371       .  S
O944        H948   0.992       .  S
O946        H947   0.992       .  S
C949        C950   1.393       .  A
C949        C954   1.394       .  A
C950        C951   1.406       .  A
C950        H955   1.084       .  S
C951        C952   1.436       .  A
C951        O956   1.369       .  S
C952        C953   1.420       .  A
C953        C954   1.395       .  A
C953        H957   1.052       .  S
C954        O958   1.373       .  S
O956        H960   0.993       .  S
O958        H959   0.992       .  S
C961        C962   1.383       .  A
C961        C966   1.409       .  A
C962        C963   1.394       .  A
C962        H967   1.085       .  S
C963        C964   1.440       .  A
C963        O968   1.370       .  S
C964        C965   1.415       .  A
C965        C966   1.395       .  A
C965        H969   1.069       .  S
C966        O970   1.377       .  S
O968        H972   0.993       .  S
O970        H971   0.990       .  S
C973        C974   1.407       .  A
C973        C978   1.409       .  A
C974        C975   1.407       .  A
C974        H979   1.081       .  S
C975        C976   1.411       .  A
C975        O980   1.371       .  S
C976        C977   1.412       .  A
C977        C978   1.409       .  A
C977        H981   1.083       .  S
C978        O982   1.371       .  S
O980        H984   0.992       .  S
O982        H983   0.992       .  S
C985        C986   1.407       .  A
C985        C990   1.412       .  A
C986        C987   1.390       .  A
C986        H991   1.081       .  S
C987        C988   1.403       .  A
C987        O992   1.373       .  S
C988        C989   1.404       .  A
C989        C990   1.402       .  A
C989        H993   1.084       .  S
C990        O994   1.371       .  S
O992        H996   0.992       .  S
O994        H995   0.992       .  S
C997        C998   1.396       .  A
C997       C1002   1.396       .  A
C998        C999   1.405       .  A
C998       H1003   1.083       .  S
C999       C1000   1.416       .  A
C999       O1004   1.375       .  S
C1000      C1001   1.401       .  A
C1001      C1002   1.386       .  A
C1001      H1005   1.083       .  S
C1002      O1006   1.368       .  S
O1006      H2339   0.992       .  S
H1007      O2338   0.992       .  S
C1009      C1010   1.401       .  A
C1009      C1014   1.410       .  A
C1010      C1011   1.392       .  A
C1010      H1015   1.065       .  S
C1011      C1012   1.402       .  A
C1011      O1016   1.374       .  S
C1012      C1013   1.416       .  A
C1013      C1014   1.418       .  A
C1013      H1017   1.083       .  S
C1014      O1018   1.370       .  S
O1016      H1020   0.990   1_565  S
O1018      H1019   0.992       .  S
C1021      C1022   1.387       .  A
C1021      C1026   1.420       .  A
C1022      C1023   1.389       .  A
C1022      H1027   1.084       .  S
C1023      C1024   1.419       .  A
C1023      O1028   1.366   1_455  S
C1024      C1025   1.402       .  A
C1025      C1026   1.410       .  A
C1025      H1029   1.083       .  S
C1026      O1030   1.372       .  S
O1028      H1032   0.992       .  S
O1030      H1031   0.992       .  S
C1033      C1700   1.397   1_455  A
C1033      C1038   1.400       .  A
C1034      C1699   1.398       .  A
C1034      C1035   1.406       .  A
C1034      H1039   1.076       .  S
C1035      C2368   1.414       .  A
C1035      O1040   1.373       .  S
C1036      C2367   1.414   1_455  A
C1037      C1038   1.386       .  A
C1037      H1041   1.073       .  S
C1038      O1042   1.373       .  S
O1040      H1044   0.991       .  S
O1042      H1043   0.992       .  S
C1045      C1046   1.418       .  A
C1045      C1050   1.420       .  A
C1046      C1047   1.436       .  A
C1046      H1051   1.082       .  S
C1047      C1048   1.422       .  A
C1047      O1052   1.370       .  S
C1048      C1049   1.393       .  A
C1049      C1050   1.394       .  A
C1049      H1053   1.085       .  S
C1050      O1054   1.369       .  S
O1052      H1056   0.991       .  S
O1054      H1055   0.992       .  S
C1057      C1058   1.410       .  A
C1057      C1062   1.413       .  A
C1058      C1059   1.405       .  A
C1058      H1063   1.081       .  S
C1059      C1060   1.410       .  A
C1059      O1064   1.373       .  S
C1060      C1061   1.404       .  A
C1061      C1062   1.393       .  A
C1061      H1065   1.083       .  S
C1062      O1066   1.371       .  S
O1064      H1068   0.991       .  S
O1066      H1067   0.992       .  S
C1069      C1070   1.408       .  A
C1069      C1074   1.408       .  A
C1070      C1071   1.401       .  A
C1070      H1075   1.082       .  S
C1071      C1072   1.415       .  A
C1071      O1076   1.367       .  S
C1072      C1073   1.413       .  A
C1073      C1074   1.402       .  A
C1073      H1077   1.083       .  S
C1074      O1078   1.375       .  S
O1076      H1080   0.992       .  S
O1078      H1079   0.991       .  S
C1081      C1082   1.395       .  A
C1081      C1086   1.401   1_565  A
C1082      C1083   1.389       .  A
C1082      H1087   1.083       .  S
C1083      C1084   1.404       .  A
C1083      O1088   1.361       .  S
C1084      C1085   1.410       .  A
C1085      C1086   1.389   1_565  A
C1085      H1089   1.083   1_565  S
O1088      H1092   0.989       .  S
O1090      H1091   0.991       .  S
C1093      C1094   1.402       .  A
C1094      C1095   1.399       .  A
C1094      H1099   1.083       .  S
C1095      C1096   1.413       .  A
C1095      O1100   1.372       .  S
C1097      C1098   1.401       .  A
C1097      H1101   1.081       .  S
C1098      O1102   1.371       .  S
O1100      H1104   0.992       .  S
O1102      H1103   0.992       .  S
C1105      C1106   1.418       .  A
C1106      C1107   1.407       .  A
C1106      H1111   1.069       .  S
C1107      C1108   1.408       .  A
C1107      O1112   1.374       .  S
C1109      C1110   1.394       .  A
C1109      H1113   1.084       .  S
C1110      O1114   1.372       .  S
O1112      H1116   0.992       .  S
O1114      H1115   0.993       .  S
C1117      C1118   1.407       .  A
C1117      C2454   1.411   1_455  A
C1118      C1119   1.380       .  A
C1118      H1123   1.081       .  S
C1119      C1120   1.400   1_455  A
C1119      O1124   1.374       .  S
C1120      C2453   1.409       .  A
C1120      C2078   1.480       .  S
C1121      C2452   1.409       .  A
C1121      C1122   1.412       .  A
C1121      H1125   1.083       .  S
C1122      C2449   1.411       .  A
C1122      O1126   1.370       .  S
O1124      H1128   0.992       .  S
O1126      H1127   0.992       .  S
C1129      C1130   1.401       .  A
C1129      C2466   1.412       .  A
C1130      C1131   1.393       .  A
C1130      H1135   1.083       .  S
C1131      C1132   1.419       .  A
C1131      O1136   1.372       .  S
C1132      C2465   1.410       .  A
C1133      C2464   1.410   1_455  A
C1133      C1134   1.408   1_455  A
C1133      H1137   1.079       .  S
C1134      C2461   1.412       .  A
C1134      O1138   1.374   1_655  S
O1136      H1140   0.989       .  S
O1138      H1139   0.992       .  S
C1141      C2474   1.407       .  A
C1141      C1146   1.414       .  A
C1142      C2473   1.407   1_455  A
C1142      C1143   1.405       .  A
C1142      H1147   1.081       .  S
C1143      C2476   1.415   1_455  A
C1143      O1148   1.376       .  S
C1144      C2475   1.415       .  A
C1144      C1145   1.402       .  A
C1145      C1146   1.391       .  A
C1145      H1149   1.083       .  S
C1146      O1150   1.369       .  S
O1148      H1152   0.992       .  S
O1150      H1151   0.992       .  S
C1153      C1154   1.406       .  A
C1153      C1158   1.402       .  A
C1154      C1155   1.401       .  A
C1154      H1159   1.084       .  S
C1155      C1156   1.408       .  A
C1156      C1157   1.410       .  A
C1157      C1158   1.392       .  A
C1157      H1161   1.084       .  S
C1158      O1162   1.375       .  S
O1160      H1164   0.991       .  S
O1162      H1163   0.992       .  S
C1165      C1166   1.409       .  A
C1165      C1170   1.415       .  A
C1166      C1167   1.418       .  A
C1166      H1171   1.083       .  S
C1167      C1168   1.417       .  A
C1167      O1172   1.371       .  S
C1168      C1169   1.398       .  A
C1169      C1170   1.404       .  A
C1169      H1173   1.083       .  S
C1170      O1174   1.371       .  S
O1172      H1176   0.992       .  S
O1174      H1175   0.990       .  S
C1177      C1178   1.392       .  A
C1177      C1182   1.426       .  A
C1178      C1179   1.383       .  A
C1178      H1183   1.079       .  S
C1179      C1180   1.419       .  A
C1179      O1184   1.373       .  S
C1180      C1181   1.399       .  A
C1181      C1182   1.414       .  A
C1181      H1185   1.083       .  S
C1182      O1186   1.373       .  S
O1184      H1188   0.993       .  S
O1186      H1187   0.991       .  S
C1189      C1190   1.402       .  A
C1189      C1194   1.409       .  A
C1190      C1191   1.395       .  A
C1190      H1195   1.083       .  S
C1191      C1192   1.413       .  A
C1191      O1196   1.372       .  S
C1192      C1193   1.409       .  A
C1193      C1194   1.402       .  A
C1193      H1197   1.076       .  S
C1194      O1198   1.375       .  S
O1196      H1200   0.991       .  S
O1198      H1199   0.992       .  S
C1201      C1206   1.416       .  A
C1202      C1203   1.402   1_545  A
C1202      H1207   1.083       .  S
C1203      C1204   1.409       .  A
C1203      O1208   1.375       .  S
C1204      C1205   1.410       .  A
C1205      H1209   1.082       .  S
C1206      O1210   1.371       .  S
O1208      H1212   0.992       .  S
O1210      H1211   0.992       .  S
C1213      C1214   1.411       .  A
C1213      C1218   1.411   1_655  A
C1213      C2076   1.512       .  S
C1214      C1215   1.401   1_655  A
C1214      H1219   1.078       .  S
C1215      C1216   1.406       .  A
C1215      O1220   1.373       .  S
C1216      C1217   1.413       .  A
C1217      C1218   1.408       .  A
C1217      H1221   1.083       .  S
C1218      O1222   1.370       .  S
O1220      H1224   0.992       .  S
O1222      H1223   0.991       .  S
C1225      C1226   1.396       .  A
C1225      C1230   1.403       .  A
C1226      C1227   1.404   1_565  A
C1226      H1231   1.084       .  S
C1227      O1232   1.365       .  S
C1229      C1230   1.402   1_545  A
C1230      O1234   1.371       .  S
O1232      H1236   0.991       .  S
O1234      H1235   0.991       .  S
C1237      C1238   1.394       .  A
C1237      C1242   1.418       .  A
C1238      C1239   1.390   1_455  A
C1238      H1243   1.083       .  S
C1239      C1240   1.428       .  A
C1239      O2576   1.372       .  S
C1240      C1241   1.413   1_655  A
C1240      C2073   1.531       .  S
C1241      C1242   1.420       .  A
C1241      H1245   1.080       .  S
C1242      O1246   1.373       .  S
O1244      C2571   1.372       .  S
O1244      H1248   0.993       .  S
O1246      H1247   0.992       .  S
C1249      C1250   1.406       .  A
C1249      C1254   1.410       .  A
C1250      C1251   1.401       .  A
C1250      H1255   1.083       .  S
C1251      C1252   1.415       .  A
C1251      O1256   1.369       .  S
C1252      C1253   1.408       .  A
C1253      C1254   1.397       .  A
C1253      H1257   1.083       .  S
C1254      O1258   1.371       .  S
O1256      H1260   0.992       .  S
O1258      H1259   0.991       .  S
C1261      C1262   1.394       .  A
C1261      C1266   1.416       .  A
C1262      C1263   1.392       .  A
C1262      H1267   1.085       .  S
C1263      C1264   1.410       .  A
C1263      O1268   1.354       .  S
C1264      C1265   1.409       .  A
C1265      C1266   1.414       .  A
C1265      H1269   1.083       .  S
C1266      O1270   1.373       .  S
O1268      H1272   0.991       .  S
O1270      H1271   0.992       .  S
C1273      C1274   1.395       .  A
C1273      C1278   1.410       .  A
C1274      C1275   1.379       .  A
C1274      H1279   1.069       .  S
C1275      C1276   1.391       .  A
C1275      O1280   1.375       .  S
C1276      C1277   1.412       .  A
C1277      C1278   1.417       .  A
C1277      H1281   1.082       .  S
C1278      O1282   1.370       .  S
O1280      H1284   0.992       .  S
O1282      H1283   0.991       .  S
C1285      C1286   1.404       .  A
C1285      C1290   1.405       .  A
C1286      C1287   1.399       .  A
C1286      H1291   1.084       .  S
C1287      C1288   1.409       .  A
C1287      O1292   1.372       .  S
C1288      C1289   1.406       .  A
C1289      C1290   1.400       .  A
C1289      H1293   1.084       .  S
C1290      O1294   1.371       .  S
O1292      H1296   0.992       .  S
O1294      H1295   0.992       .  S
C1297      C1298   1.418       .  A
C1297      C1302   1.406       .  A
C1298      C1299   1.409       .  A
C1298      H1303   1.082       .  S
C1299      C1300   1.404       .  A
C1299      O1304   1.371       .  S
C1300      C1301   1.401       .  A
C1301      C1302   1.388       .  A
C1301      H1305   1.077       .  S
C1302      O1306   1.372       .  S
O1304      H1308   0.991       .  S
O1306      H1307   0.991       .  S
C1309      C1310   1.397       .  A
C1309      C1314   1.400       .  A
C1310      C1311   1.393       .  A
C1310      H1315   1.084       .  S
C1311      C1312   1.413       .  A
C1311      O1316   1.371       .  S
C1312      C1313   1.404       .  A
C1313      C1314   1.384       .  A
C1313      H1317   1.082       .  S
C1314      O1318   1.373       .  S
O1316      H1320   0.992       .  S
O1318      H1319   0.991       .  S
C1321      C1322   1.405       .  A
C1321      C1326   1.414       .  A
C1322      C1323   1.413       .  A
C1322      H1327   1.083       .  S
C1323      C1324   1.422       .  A
C1323      O1328   1.372       .  S
C1324      C1325   1.408       .  A
C1325      C1326   1.410       .  A
C1325      H1329   1.083       .  S
C1326      O1330   1.368       .  S
O1328      H1332   0.992       .  S
O1330      H1331   0.985       .  S
Zr1333     O1334   2.437       .  S
Zr1333     O1335   2.398       .  S
Zr1333     O1336   2.378       .  S
Zr1333     O1339   2.373       .  S
Zr1333     O1341   2.359       .  S
Zr1333     O1342   2.378       .  S
Zr1333     O1343   2.388       .  S
Zr1333     O1344   2.393       .  S
O1334      H1390   0.991       .  S
O1334      H1398   0.990       .  S
O1335      C1355   1.280       .  A
O1336      C1357   1.273       .  A
O1337     Zr1347   2.471       .  S
O1337      C1356   1.287       .  A
O1338     Zr1346   2.533       .  S
O1338      C1357   1.303       .  A
O1339      C1356   1.273       .  A
O1340     Zr1348   2.400       .  S
O1340      C1355   1.277       .  A
O1341     Zr1346   2.384       .  S
O1341     Zr1348   2.382       .  S
O1342     Zr1347   2.387       .  S
O1342     Zr1348   2.365       .  S
O1342      H1377   0.966       .  S
O1343     Zr1346   2.393       .  S
O1343     Zr1363   2.408       .  S
O1343      H1380   0.966       .  S
O1344     Zr1347   2.399       .  S
O1344     Zr1363   2.400       .  S
Zr1345     O1370   2.436       .  S
Zr1345     O1364   2.455       .  S
Zr1345     O1372   2.420       .  S
Zr1345     O1360   2.409       .  S
Zr1345     O1351   2.392       .  S
Zr1345     O1352   2.433       .  S
Zr1345     O1353   2.387       .  S
Zr1345     O1354   2.386       .  S
Zr1346     O1365   2.436       .  S
Zr1346     O1358   2.434       .  S
Zr1346     O1359   2.485       .  S
Zr1346     O1352   2.423       .  S
Zr1346     O1353   2.421       .  S
Zr1347     O1349   2.435   1_655  S
Zr1347     O1371   2.436       .  S
Zr1347     O1373   2.447       .  S
Zr1347     O1351   2.406       .  S
Zr1347     O1354   2.406       .  S
Zr1348     O1374   2.435       .  S
Zr1348     O1375   2.436       .  S
Zr1348     O1350   2.437       .  S
Zr1348     O1351   2.389       .  S
Zr1348     O1352   2.368       .  S
O1349      H1386   0.990       .  S
O1350      H1381   0.990   1_545  S
O1350      H1395   0.990       .  S
O1352      H1378   0.967       .  S
O1353     Zr1363   2.377       .  S
O1354     Zr1363   2.372       .  S
O1354      H1379   0.965       .  S
C1355      C1978   1.467       .  S
C1356      C1966   1.470       .  S
C1357      C1987   1.497       .  S
O1358      H1394   0.990       .  S
O1359      C1361   1.286       .  A
O1360      C1361   1.269       .  A
C1361      C1939   1.477       .  S
O1362     Zr1363   2.438       .  S
O1362      H1391   0.990       .  S
Zr1363     O1366   2.436       .  S
Zr1363     O1367   2.439       .  S
Zr1363     O1368   2.442       .  S
O1364      C1369   1.287       .  A
O1365      H1382   0.990       .  S
O1365      H1397   0.990       .  S
O1366      H1383   0.990       .  S
O1367      H1387   0.990       .  S
O1367      H1396   0.990       .  S
O1368      C1369   1.284       .  A
C1369      C1930   1.504       .  S
O1370      H1389   0.988       .  S
O1370      H1393   0.990       .  S
O1371      H1385   0.990       .  S
O1371      H1392   0.990       .  S
O1372      C1376   1.275       .  A
O1373      C1376   1.281       .  A
O1374      H1384   0.990       .  S
O1375      H1388   0.990       .  S
C1376      C1951   1.467       .  S
C1399      C1915   1.506       .  S
C1399      C1400   1.427       .  A
C1399      C1404   1.420       .  A
C1400      C1891   1.506       .  S
C1400      C1401   1.433       .  A
C1401      C1870   1.510       .  S
C1401      C1402   1.437       .  A
C1402      C1903   1.515       .  S
C1402      C1403   1.436       .  A
C1403      C1882   1.513       .  S
C1403      C1404   1.421       .  A
C1404      C1855   1.502       .  S
C1405      C1406   1.388       .  D
C1405      C1867   1.520       .  S
C1405      C1942   1.482       .  S
C1406      C1843   1.506       .  S
C1406      C1858   1.511       .  S
C1407      C1408   1.393       .  D
C1407      C1927   1.504       .  S
C1408      C1831   1.516       .  S
C1408      C1918   1.514       .  S
C1409      C1410   1.384       .  D
C1409      C1894   1.551       .  S
C1409      C1954   1.488       .  S
C1410      C1819   1.472       .  S
C1411      C1412   1.383       .  D
C1411      C1798   1.513       .  S
C1411      C1963   1.505       .  S
C1412      C1807   1.511       .  S
C1413      C2080   1.371   1_545  D
C1413      C1762   1.510       .  S
C1413      C1975   1.453       .  S
C1414      C2079   1.371       .  D
C1414      C1747   1.464       .  S
C1414      C2437   1.541       .  S
C1415      C1774   1.504       .  S
C1415      C1420   1.424       .  A
C1416      C1810   1.508       .  S
C1416      C1417   1.429       .  A
C1417      C1735   1.512       .  S
C1417      C2084   1.426       .  A
C1418      C1759   1.501       .  S
C1418      C2083   1.426   1_545  A
C1418      C1419   1.426       .  A
C1419      C1795   1.503       .  S
C1420      C1726   1.500       .  S
C1421      C1422   1.394       .  D
C1421      C1738   1.516       .  S
C1421      C1990   1.533       .  S
C1422      C1714   1.526       .  S
C1422      C1723   1.509       .  S
Zr1423     O1424   2.472       .  S
Zr1423     O1429   2.409   1_545  S
Zr1423     O2098   2.404   1_545  S
Zr1423     O1434   2.395       .  S
O1424      H1480   0.988       .  S
O1424      H1488   0.990       .  S
O1425      C1445   1.283   1_545  A
O1426      C1447   1.264       .  A
O1427     Zr1437   2.489       .  S
O1427      C1446   1.284       .  A
O1428     Zr1436   2.508   1_556  S
O1428      C1447   1.294       .  A
O1429      C2112   1.265       .  A
O1430     Zr2104   2.379       .  S
O1430      C2111   1.274       .  A
O1431     Zr1436   2.395   1_556  S
O1431     Zr1438   2.374   1_545  S
O1432     Zr2089   2.404       .  S
O1432     Zr1437   2.430       .  S
O1432      H1467   0.966       .  S
O1433     Zr1436   2.408   1_556  S
O1433      H1470   0.966       .  S
O1434     Zr2103   2.416   1_545  S
O1434     Zr1453   2.378   1_556  S
Zr1435     O2126   2.448       .  S
Zr1435     O1450   2.330   1_565  S
Zr1435     O1442   2.391   1_565  S
Zr1435     O1443   2.379   1_565  S
Zr1436     O1455   2.436       .  S
Zr1436     O1448   2.434   1_554  S
Zr1436     O1449   2.513       .  S
Zr1436     O1442   2.404       .  S
Zr1436     O1443   2.392       .  S
Zr1437     O1439   2.433   1_556  S
Zr1437     O1461   2.433       .  S
Zr1437     O1463   2.527   1_556  S
Zr1437     O2100   2.416       .  S
Zr1437     O1441   2.392   1_556  S
Zr1437     O2110   2.397   1_556  S
Zr1438     O2130   2.435       .  S
Zr1438     O2131   2.437       .  S
Zr1438     O1440   2.438       .  S
Zr1438     O2096   2.380       .  S
Zr1438     O1442   2.381   1_566  S
O1439      H1476   0.990       .  S
O1440      H1471   0.990       .  S
O1440      H1485   0.990   1_565  S
O1442      H1468   0.966       .  S
O1444     Zr2103   2.397   1_554  S
O1444     Zr1453   2.370   1_565  S
O1444      H1469   0.964       .  S
C1445      O2096   1.274       .  A
C1445      C1699   1.465       .  S
C1446      O2095   1.265       .  A
C1446      C1675   1.492       .  S
C1447      C1690   1.489       .  S
O1448      H1484   0.990       .  S
O1449      C1451   1.298       .  A
O1450      C1451   1.267       .  A
C1451      C1846   1.490       .  S
O1452     Zr1453   2.439       .  S
O1452      H1481   0.990       .  S
Zr1453     O1456   2.437       .  S
Zr1453     O1457   2.438       .  S
Zr1453     O1458   2.385       .  S
O1454      C1459   1.288       .  A
O1455      H1472   0.990       .  S
O1455      H1487   0.990       .  S
O1456      H1473   0.990       .  S
O1457      H1477   0.990       .  S
O1457      H1486   0.990       .  S
O1458      C1459   1.277       .  A
C1459      C1822   1.475       .  S
O1460     Zr2101   2.448       .  S
O1460      H1479   0.990       .  S
O1460      H2149   0.990       .  S
O1461      H1475   0.990       .  S
O1461      H1482   0.990       .  S
O1462      C1466   1.262       .  A
O1463      C1466   1.298       .  A
O1464     Zr2104   2.435       .  S
O1464      H1474   0.990       .  S
O1465     Zr2104   2.437       .  S
O1465      H1478   0.990   1_556  S
C1466      C1834   1.490       .  S
H1483      O2126   0.990       .  S
Zr1489     O1490   2.434       .  S
Zr1489     O1491   2.410       .  S
Zr1489     O1492   2.406       .  S
Zr1489     O1495   2.401       .  S
Zr1489     O1497   2.381       .  S
Zr1489     O1498   2.397       .  S
Zr1489     O1499   2.408       .  S
Zr1489     O1500   2.400       .  S
O1490      H1546   0.990       .  S
O1490      H1554   0.990       .  S
O1491      C1511   1.279       .  A
O1492      C1513   1.273       .  A
O1493     Zr1503   2.497       .  S
O1493      C1512   1.290       .  A
O1494     Zr1502   2.435       .  S
O1494      C1513   1.282       .  A
O1495      C1512   1.271       .  A
O1496     Zr1504   2.436       .  S
O1496      C1511   1.283       .  A
O1497     Zr1502   2.402       .  S
O1497     Zr1504   2.375       .  S
O1498     Zr1503   2.427       .  S
O1498     Zr1504   2.369       .  S
O1498      H1533   0.966       .  S
O1499     Zr1502   2.416       .  S
O1499     Zr1519   2.382       .  S
O1499      H1536   0.966       .  S
O1500     Zr1503   2.422       .  S
O1500     Zr1519   2.376       .  S
Zr1501     O1526   2.446       .  S
Zr1501     O1520   2.436       .  S
Zr1501     O1528   2.392       .  S
Zr1501     O1516   2.388       .  S
Zr1501     O1507   2.397       .  S
Zr1501     O1508   2.413       .  S
Zr1501     O1509   2.370       .  S
Zr1501     O1510   2.387       .  S
Zr1502     O1521   2.436       .  S
Zr1502     O1515   2.464       .  S
Zr1502     O1508   2.415       .  S
Zr1502     O1509   2.400       .  S
Zr1503     O1505   2.434       .  S
Zr1503     O1527   2.433       .  S
Zr1503     O1529   2.563       .  S
Zr1503     O1507   2.394       .  S
Zr1503     O1510   2.379       .  S
Zr1504     O1530   2.434       .  S
Zr1504     O1531   2.435       .  S
Zr1504     O1506   2.437       .  S
Zr1504     O1507   2.400       .  S
Zr1504     O1508   2.400       .  S
O1505      H1542   0.990       .  S
O1506      H1537   0.990       .  S
O1506      H1551   0.990       .  S
O1508      H1534   0.965       .  S
O1509     Zr1519   2.357       .  S
O1510     Zr1519   2.380       .  S
O1510      H1535   0.964       .  S
C1511      C1651   1.483       .  S
C1512      C1639   1.487       .  S
C1513      C1663   1.447       .  S
O1514      H1550   0.990       .  S
O1515      C1517   1.270       .  A
O1516      C1517   1.261       .  A
C1517      C1783   1.483       .  S
O1518     Zr1519   2.439       .  S
O1518      H1547   0.990       .  S
Zr1519     O1522   2.438       .  S
Zr1519     O1523   2.436       .  S
Zr1519     O1524   2.393       .  S
O1520      C1525   1.289       .  A
O1521      H1538   0.990       .  S
O1521      H1553   0.990       .  S
O1522      H1539   0.990       .  S
O1523      H1543   0.990       .  S
O1523      H1552   0.990       .  S
O1524      C1525   1.278       .  A
C1525      C1750   1.471       .  S
O1526      H1545   0.990       .  S
O1526      H1549   0.988       .  S
O1527      H1541   0.990       .  S
O1527      H1548   0.990       .  S
O1528      C1532   1.268       .  A
O1529      C1532   1.302       .  A
O1530      H1540   0.990       .  S
O1531      H1544   0.990       .  S
C1532      C1711   1.529       .  S
C1555      C1556   1.412       .  D
C1555      C1630   1.555       .  S
C1555      C1678   1.490       .  S
C1556      C2284   1.561       .  S
C1556      C1642   1.506       .  S
C1557      C1582   1.520       .  S
C1557      C1558   1.429       .  A
C1557      C1562   1.435       .  A
C1558      C1627   1.481       .  S
C1558      C1559   1.419       .  A
C1559      C1606   1.507       .  S
C1559      C1560   1.417       .  A
C1560      C1567   1.516       .  S
C1560      C1561   1.436       .  A
C1561      C1615   1.486       .  S
C1561      C1562   1.443       .  A
C1562      C1591   1.539       .  S
C1563      C1564   1.392       .  D
C1563      C1579   1.526       .  S
C1563      C1687   1.489       .  S
C1564      C1654   1.480       .  S
C1565      C1566   1.381       .  D
C1565      C2260   1.518       .  S
C1565      C1702   1.502       .  S
C1566      C1666   1.481       .  S
C1567      C1568   1.398       .  A
C1567      C1572   1.416       .  A
C1568      C1569   1.403       .  A
C1568      H1573   1.083       .  S
C1569      C1570   1.424       .  A
C1569      O1574   1.369       .  S
C1570      C1571   1.410       .  A
C1571      C1572   1.416       .  A
C1571      H1575   1.082   1_655  S
C1572      O1576   1.369       .  S
O1574      H1578   0.992       .  S
O1576      H1577   0.992       .  S
C1579      C1580   1.405       .  A
C1579      C1584   1.423       .  A
C1580      C1581   1.400       .  A
C1580      H1585   1.076       .  S
C1581      C1582   1.416       .  A
C1581      O1586   1.367       .  S
C1582      C1583   1.405       .  A
C1583      C1584   1.402       .  A
C1583      H1587   1.083       .  S
C1584      O1588   1.371       .  S
O1586      H1590   0.992       .  S
O1588      H1589   0.992       .  S
C1591      C1592   1.413       .  A
C1591      C1596   1.421       .  A
C1592      C1593   1.404       .  A
C1592      H1597   1.075       .  S
C1593      C1594   1.406       .  A
C1593      O2264   1.372   1_545  S
C1594      C1595   1.404       .  A
C1594      C2231   1.518   1_545  S
C1595      C1596   1.417       .  A
C1595      H1599   1.078       .  S
C1596      O1600   1.375       .  S
O1598      C2259   1.372       .  S
O1598      H1602   0.992       .  S
O1600      H1601   0.992       .  S
C1603      C1604   1.415       .  A
C1603      C1608   1.426       .  A
C1604      C1605   1.419       .  A
C1604      H1609   1.079   1_655  S
C1605      C1606   1.414       .  A
C1605      O1610   1.373       .  S
C1606      C1607   1.393       .  A
C1607      C1608   1.396       .  A
C1607      H1611   1.084       .  S
C1608      O1612   1.371       .  S
O1610      H1614   0.992       .  S
O1612      H1613   0.992       .  S
C1615      C1616   1.393       .  A
C1615      C1620   1.394       .  A
C1616      C1617   1.406       .  A
C1616      H1621   1.084       .  S
C1617      C1618   1.436   1_545  A
C1617      O1622   1.369   1_545  S
C1618      C1619   1.420   1_565  A
C1618      C2222   1.561       .  S
C1619      C1620   1.395       .  A
C1619      H1623   1.052       .  S
C1620      O1624   1.373       .  S
O1622      H1626   0.993       .  S
O1624      H1625   0.992       .  S
C1627      C1628   1.383       .  A
C1627      C1632   1.409       .  A
C1628      C1629   1.394       .  A
C1628      H1633   1.085       .  S
C1629      C1630   1.440       .  A
C1629      O1634   1.370       .  S
C1630      C1631   1.415       .  A
C1631      C1632   1.395       .  A
C1631      H1635   1.070       .  S
C1632      O1636   1.376       .  S
O1634      H1638   0.993       .  S
O1636      H1637   0.990       .  S
C1639      C1640   1.407       .  A
C1639      C1644   1.409       .  A
C1640      C1641   1.407       .  A
C1640      H1645   1.081       .  S
C1641      C1642   1.411       .  A
C1641      O1646   1.371       .  S
C1642      C1643   1.412       .  A
C1643      C1644   1.409       .  A
C1643      H1647   1.083       .  S
C1644      O1648   1.371       .  S
O1646      H1650   0.992       .  S
O1648      H1649   0.992       .  S
C1651      C1652   1.407       .  A
C1651      C1656   1.412       .  A
C1652      C1653   1.390       .  A
C1652      H1657   1.081       .  S
C1653      C1654   1.403       .  A
C1653      O1658   1.373       .  S
C1654      C1655   1.404       .  A
C1655      C1656   1.402       .  A
C1655      H1659   1.084       .  S
C1656      O1660   1.371       .  S
O1658      H1662   0.992       .  S
O1660      H1661   0.992       .  S
C1663      C1664   1.396       .  A
C1663      C1668   1.396       .  A
C1664      C1665   1.405       .  A
C1664      H1669   1.083       .  S
C1665      C1666   1.416       .  A
C1665      O1670   1.375       .  S
C1666      C1667   1.401       .  A
C1667      C1668   1.386       .  A
C1667      H1671   1.083       .  S
C1668      O1672   1.368       .  S
O1670      H2340   0.992       .  S
H1674      O2336   0.992   1_545  S
C1675      C1676   1.401       .  A
C1675      C1680   1.410       .  A
C1676      C1677   1.392       .  A
C1676      H1681   1.065       .  S
C1677      C1678   1.402       .  A
C1677      O1682   1.374       .  S
C1678      C1679   1.416       .  A
C1679      C1680   1.418       .  A
C1679      H1683   1.083       .  S
C1680      O1684   1.370       .  S
O1682      H1686   0.990       .  S
O1684      H1685   0.992       .  S
C1687      C1688   1.387       .  A
C1687      C1692   1.420       .  A
C1688      C1689   1.389       .  A
C1688      H1693   1.084       .  S
C1689      C1690   1.419       .  A
C1689      O1694   1.366       .  S
C1690      C1691   1.402       .  A
C1691      C1692   1.410       .  A
C1691      H1695   1.083       .  S
C1692      O1696   1.372       .  S
O1694      H1698   0.992       .  S
O1696      H1697   0.992       .  S
C1699      C1704   1.400   1_565  A
C1700      C1701   1.406       .  A
C1700      H1705   1.076       .  S
C1701      O1706   1.373       .  S
C1702      C2369   1.410       .  A
C1703      C2368   1.410       .  A
C1703      C1704   1.386   1_565  A
C1703      H1707   1.073   1_565  S
C1704      O1708   1.373       .  S
O1706      H1710   0.991       .  S
O1708      H1709   0.992       .  S
C1711      C1712   1.418       .  A
C1711      C1716   1.420       .  A
C1712      C1713   1.436       .  A
C1712      H1717   1.082       .  S
C1713      C1714   1.422       .  A
C1713      O1718   1.370       .  S
C1714      C1715   1.393       .  A
C1715      C1716   1.394       .  A
C1715      H1719   1.085       .  S
C1716      O1720   1.369       .  S
O1718      H1722   0.991       .  S
O1720      H1721   0.992       .  S
C1723      C1724   1.410       .  A
C1723      C1728   1.413       .  A
C1724      C1725   1.405       .  A
C1724      H1729   1.081       .  S
C1725      C1726   1.410       .  A
C1725      O1730   1.373       .  S
C1726      C1727   1.404       .  A
C1727      C1728   1.393       .  A
C1727      H1731   1.083       .  S
C1728      O1732   1.371       .  S
O1730      H1734   0.991       .  S
O1732      H1733   0.992       .  S
C1735      C1736   1.408       .  A
C1735      C1740   1.408       .  A
C1736      C1737   1.401       .  A
C1736      H1741   1.082       .  S
C1737      C1738   1.415       .  A
C1737      O1742   1.367       .  S
C1738      C1739   1.413       .  A
C1739      C1740   1.402       .  A
C1739      H1743   1.083       .  S
C1740      O1744   1.375       .  S
O1742      H1746   0.992       .  S
O1744      H1745   0.991       .  S
C1747      C1748   1.395       .  A
C1747      C1752   1.401       .  A
C1748      C1749   1.389       .  A
C1748      H1753   1.083       .  S
C1749      C1750   1.404       .  A
C1749      O1754   1.361       .  S
C1750      C1751   1.410       .  A
C1751      C1752   1.389       .  A
C1751      H1755   1.083       .  S
C1752      O2422   1.372       .  S
O1754      H1758   0.989       .  S
O1756      C2418   1.372       .  S
O1756      H1757   0.991       .  S
C1759      C1760   1.402   1_545  A
C1759      C2430   1.411       .  A
C1760      C1761   1.399       .  A
C1760      H1765   1.083       .  S
C1761      C1762   1.413   1_565  A
C1761      O1766   1.372       .  S
C1762      C2429   1.408       .  A
C1763      C2428   1.408       .  A
C1763      C1764   1.401       .  A
C1763      H1767   1.081       .  S
C1764      C2425   1.411       .  A
C1764      O1768   1.371       .  S
O1766      H1770   0.992       .  S
O1768      H1769   0.992       .  S
C1771      C1772   1.418       .  A
C1771      C2442   1.433   1_545  A
C1771      C2080   1.541   1_545  S
C1772      C1773   1.407       .  A
C1772      H1777   1.069       .  S
C1773      C1774   1.408       .  A
C1773      O1778   1.374       .  S
C1774      C2441   1.393   1_545  A
C1775      C2440   1.393       .  A
C1775      C1776   1.394       .  A
C1775      H1779   1.084       .  S
C1776      C2437   1.433       .  A
C1776      O1780   1.372       .  S
O1778      H1782   0.992       .  S
O1780      H1781   0.993       .  S
C1783      C1784   1.407       .  A
C1784      C1785   1.380       .  A
C1784      H1789   1.081       .  S
C1785      C1786   1.400       .  A
C1785      O1790   1.374       .  S
C1787      C1788   1.412       .  A
C1787      H1791   1.083       .  S
C1788      O1792   1.370       .  S
O1790      H1794   0.992       .  S
O1792      H1793   0.992       .  S
C1795      C1796   1.401       .  A
C1796      C1797   1.393       .  A
C1796      H1801   1.083       .  S
C1797      C1798   1.419       .  A
C1797      O1802   1.372       .  S
C1799      C1800   1.408       .  A
C1799      H1803   1.079       .  S
C1800      O1804   1.374       .  S
O1802      H1806   0.989       .  S
O1804      H1805   0.992       .  S
C1807      C1812   1.414       .  A
C1808      C1809   1.405       .  A
C1808      H1813   1.081       .  S
C1809      O1814   1.376       .  S
C1810      C1811   1.402       .  A
C1811      C1812   1.391       .  A
C1811      H1815   1.083       .  S
C1812      O1816   1.369       .  S
O1814      H1818   0.992       .  S
O1816      H1817   0.992       .  S
C1819      C1820   1.406       .  A
C1819      C1824   1.402       .  A
C1820      C1821   1.401       .  A
C1820      H1825   1.084   1_655  S
C1821      C1822   1.408       .  A
C1821      O2492   1.373   1_655  S
C1822      C1823   1.410       .  A
C1823      C1824   1.392       .  A
C1823      H1827   1.084       .  S
C1824      O1828   1.375       .  S
O1826      C2487   1.373   1_455  S
O1826      H1830   0.991       .  S
O1828      H1829   0.992       .  S
C1831      C1832   1.409       .  A
C1831      C1836   1.415       .  A
C1832      C1833   1.418       .  A
C1832      H1837   1.083       .  S
C1833      C1834   1.417       .  A
C1833      O1838   1.371       .  S
C1834      C1835   1.398       .  A
C1835      C1836   1.404       .  A
C1835      H1839   1.083       .  S
C1836      O1840   1.371       .  S
O1838      H1842   0.992       .  S
O1840      H1841   0.990       .  S
C1843      C1844   1.392       .  A
C1843      C1848   1.426       .  A
C1844      C1845   1.383       .  A
C1844      H1849   1.079       .  S
C1845      C1846   1.419       .  A
C1845      O1850   1.373       .  S
C1846      C1847   1.399       .  A
C1847      C1848   1.414       .  A
C1847      H1851   1.083       .  S
C1848      O1852   1.373       .  S
O1850      H1854   0.993   1_545  S
O1852      H1853   0.991       .  S
C1855      C1856   1.402       .  A
C1855      C1860   1.408       .  A
C1856      C1857   1.396       .  A
C1856      H1861   1.083       .  S
C1857      C1858   1.413       .  A
C1857      O1862   1.372       .  S
C1858      C1859   1.409       .  A
C1859      C1860   1.402       .  A
C1859      H1863   1.076       .  S
C1860      O1864   1.375       .  S
O1862      H1866   0.991       .  S
O1864      H1865   0.992       .  S
C1867      C2534   1.410       .  A
C1867      C1872   1.416       .  A
C1868      C2533   1.410       .  A
C1868      C1869   1.402       .  A
C1868      H1873   1.083       .  S
C1869      C1870   1.409       .  A
C1869      O1874   1.375       .  S
C1870      C1871   1.410       .  A
C1871      C2538   1.406       .  A
C1871      H1875   1.082       .  S
C1872      C2537   1.406   1_545  A
C1872      O1876   1.371       .  S
O1874      H1878   0.992       .  S
O1876      H1877   0.992       .  S
C1879      C1880   1.411       .  A
C1879      C1884   1.411       .  A
C1880      C1881   1.401       .  A
C1880      H1885   1.078       .  S
C1881      C1882   1.406       .  A
C1881      O1886   1.373       .  S
C1882      C1883   1.413       .  A
C1883      C1884   1.408       .  A
C1883      H1887   1.083       .  S
C1884      O1888   1.370       .  S
O1886      H1890   0.992       .  S
O1888      H1889   0.991       .  S
C1891      C1892   1.396       .  A
C1891      C1896   1.403       .  A
C1892      C1893   1.404       .  A
C1892      H1897   1.084       .  S
C1893      C2560   1.432       .  A
C1893      O1898   1.365       .  S
C1894      C2559   1.432       .  A
C1894      C2561   1.417       .  A
C1895      C2560   1.417       .  A
C1895      C1896   1.402       .  A
C1895      H2565   1.067       .  S
C1896      O1900   1.371       .  S
O1898      H1902   0.991       .  S
H1899      C2561   1.067       .  S
O1900      H1901   0.991       .  S
C1903      C1904   1.394       .  A
C1903      C1908   1.418       .  A
C1904      C1905   1.390       .  A
C1904      H1909   1.083       .  S
C1905      C1906   1.428       .  A
C1906      C1907   1.413       .  A
C1907      C1908   1.420       .  A
C1907      H1911   1.080       .  S
C1908      O1912   1.373       .  S
O1910      H1914   0.993       .  S
O1912      H1913   0.992       .  S
C1915      C1916   1.406       .  A
C1915      C1920   1.410       .  A
C1916      C1917   1.401       .  A
C1916      H1921   1.083       .  S
C1917      C1918   1.414       .  A
C1917      O1922   1.369       .  S
C1918      C1919   1.408       .  A
C1919      C1920   1.397       .  A
C1919      H1923   1.083       .  S
C1920      O1924   1.371       .  S
O1922      H1926   0.992       .  S
O1924      H1925   0.991       .  S
C1927      C1928   1.394       .  A
C1927      C1932   1.416       .  A
C1928      C1929   1.392       .  A
C1928      H1933   1.085       .  S
C1929      C1930   1.410       .  A
C1929      O1934   1.354       .  S
C1930      C1931   1.409       .  A
C1931      C1932   1.414       .  A
C1931      H1935   1.083       .  S
C1932      O1936   1.373       .  S
O1934      H1938   0.991       .  S
O1936      H1937   0.992       .  S
C1939      C1940   1.395       .  A
C1939      C1944   1.410       .  A
C1940      C1941   1.379       .  A
C1940      H1945   1.069       .  S
C1941      C1942   1.391       .  A
C1941      O1946   1.375       .  S
C1942      C1943   1.412       .  A
C1943      C1944   1.417       .  A
C1943      H1947   1.082       .  S
C1944      O1948   1.370       .  S
O1946      H1950   0.992       .  S
O1948      H1949   0.991       .  S
C1951      C1952   1.404       .  A
C1951      C1956   1.404       .  A
C1952      C1953   1.399       .  A
C1952      H1957   1.084       .  S
C1953      C1954   1.409       .  A
C1953      O1958   1.372       .  S
C1954      C1955   1.406       .  A
C1955      C1956   1.400       .  A
C1955      H1959   1.084       .  S
C1956      O1960   1.371       .  S
O1958      H1962   0.992       .  S
O1960      H1961   0.992       .  S
C1963      C1964   1.418   1_655  A
C1963      C1968   1.406       .  A
C1964      C1965   1.409       .  A
C1964      H1969   1.082       .  S
C1965      C1966   1.404   1_455  A
C1965      O1970   1.371       .  S
C1966      C1967   1.401       .  A
C1967      C1968   1.388       .  A
C1967      H1971   1.077       .  S
C1968      O1972   1.372       .  S
O1970      H1974   0.991       .  S
O1972      H1973   0.991       .  S
C1975      C1976   1.397       .  A
C1975      C1980   1.400       .  A
C1976      C1977   1.393       .  A
C1976      H1981   1.084   1_545  S
C1977      C1978   1.413       .  A
C1977      O1982   1.371   1_545  S
C1978      C1979   1.404       .  A
C1979      C1980   1.384       .  A
C1979      H1983   1.082       .  S
C1980      O1984   1.373       .  S
O1982      H1986   0.992   1_565  S
O1984      H1985   0.991       .  S
C1987      C1988   1.405       .  A
C1987      C1992   1.414       .  A
C1988      C1989   1.413       .  A
C1988      H1993   1.083       .  S
C1989      C1990   1.422       .  A
C1989      O1994   1.372       .  S
C1990      C1991   1.408       .  A
C1991      C1992   1.410       .  A
C1991      H1995   1.083       .  S
C1992      O1996   1.368       .  S
O1994      H1998   0.992       .  S
O1996      H1997   0.985       .  S
Zr1999     O2000   2.437       .  S
Zr1999     O2001   2.398       .  S
Zr1999     O2002   2.378       .  S
Zr1999     O2005   2.373       .  S
Zr1999     O2007   2.359       .  S
Zr1999     O2008   2.378       .  S
Zr1999     O2009   2.388       .  S
Zr1999     O2010   2.393       .  S
O2000      H2056   0.991       .  S
O2000      H2064   0.990       .  S
O2001      C2021   1.280       .  A
O2002      C2023   1.273       .  A
O2003     Zr2013   2.471       .  S
O2003      C2022   1.287       .  A
O2004     Zr2012   2.533       .  S
O2004      C2023   1.303       .  A
O2005      C2022   1.273       .  A
O2006     Zr2014   2.400       .  S
O2006      C2021   1.277       .  A
O2007     Zr2012   2.384       .  S
O2007     Zr2014   2.382       .  S
O2008     Zr2013   2.387       .  S
O2008     Zr2014   2.365       .  S
O2008      H2043   0.966       .  S
O2009     Zr2012   2.393       .  S
O2009     Zr2029   2.408       .  S
O2009      H2046   0.966       .  S
O2010     Zr2013   2.399       .  S
O2010     Zr2029   2.400       .  S
Zr2011     O2036   2.436       .  S
Zr2011     O2030   2.455       .  S
Zr2011     O2038   2.420       .  S
Zr2011     O2026   2.409       .  S
Zr2011     O2017   2.392       .  S
Zr2011     O2018   2.433       .  S
Zr2011     O2019   2.387       .  S
Zr2011     O2020   2.386       .  S
Zr2012     O2031   2.436       .  S
Zr2012     O2024   2.434       .  S
Zr2012     O2025   2.485       .  S
Zr2012     O2018   2.423       .  S
Zr2012     O2019   2.421       .  S
Zr2013     O2015   2.435   1_655  S
Zr2013     O2037   2.436       .  S
Zr2013     O2039   2.447       .  S
Zr2013     O2017   2.406       .  S
Zr2013     O2020   2.406       .  S
Zr2014     O2040   2.435       .  S
Zr2014     O2041   2.436       .  S
Zr2014     O2016   2.437       .  S
Zr2014     O2017   2.389       .  S
Zr2014     O2018   2.368       .  S
O2015      H2052   0.990       .  S
O2016      H2047   0.990       .  S
O2016      H2061   0.990       .  S
O2018      H2044   0.967       .  S
O2019     Zr2029   2.377       .  S
O2020     Zr2029   2.372       .  S
O2020      H2045   0.965       .  S
C2021      C2644   1.467       .  S
C2022      C2632   1.470       .  S
C2023      C2653   1.497       .  S
O2024      H2060   0.990       .  S
O2025      C2027   1.286       .  A
O2026      C2027   1.269       .  A
C2027      C2605   1.477       .  S
O2028     Zr2029   2.438       .  S
O2028      H2057   0.990       .  S
Zr2029     O2032   2.436       .  S
Zr2029     O2033   2.439       .  S
Zr2029     O2034   2.442       .  S
O2030      C2035   1.288       .  A
O2031      H2048   0.990       .  S
O2031      H2063   0.990       .  S
O2032      H2049   0.990       .  S
O2033      H2053   0.990       .  S
O2033      H2062   0.990       .  S
O2034      C2035   1.284       .  A
C2035      C2596   1.504       .  S
O2036      H2055   0.988       .  S
O2036      H2059   0.990       .  S
O2037      H2051   0.990       .  S
O2037      H2058   0.990       .  S
O2038      C2042   1.275       .  A
O2039      C2042   1.281       .  A
O2040      H2050   0.990       .  S
O2041      H2054   0.990       .  S
C2042      C2617   1.467       .  S
C2065      C2581   1.506       .  S
C2065      C2066   1.427       .  A
C2065      C2070   1.420       .  A
C2066      C2557   1.506       .  S
C2066      C2067   1.433       .  A
C2067      C2536   1.510       .  S
C2067      C2068   1.437       .  A
C2068      C2569   1.515       .  S
C2068      C2069   1.436       .  A
C2069      C2548   1.513       .  S
C2069      C2070   1.421       .  A
C2070      C2521   1.502       .  S
C2071      C2072   1.388       .  D
C2071      C2533   1.520       .  S
C2071      C2608   1.482       .  S
C2072      C2509   1.506       .  S
C2072      C2524   1.511       .  S
C2073      C2074   1.393       .  D
C2073      C2593   1.504       .  S
C2074      C2497   1.516       .  S
C2074      C2584   1.514       .  S
C2075      C2076   1.384       .  D
C2075      C2560   1.551       .  S
C2075      C2620   1.488       .  S
C2076      C2485   1.472       .  S
C2077      C2078   1.383       .  D
C2077      C2464   1.513       .  S
C2077      C2629   1.505       .  S
C2078      C2473   1.511       .  S
C2079      C2428   1.510       .  S
C2079      C2641   1.453       .  S
C2080      C2413   1.464       .  S
C2081      C2440   1.504       .  S
C2081      C2086   1.424       .  A
C2082      C2476   1.508       .  S
C2082      C2083   1.429       .  A
C2083      C2401   1.512       .  S
C2084      C2425   1.501       .  S
C2084      C2085   1.426       .  A
C2085      C2461   1.503       .  S
C2086      C2392   1.500       .  S
C2087      C2088   1.394       .  D
C2087      C2404   1.516       .  S
C2087      C2656   1.533       .  S
C2088      C2380   1.525       .  S
C2088      C2389   1.509       .  S
Zr2089     O2090   2.472       .  S
Zr2089     O2095   2.409       .  S
Zr2089     O2100   2.395       .  S
O2090      H2146   0.988       .  S
O2090      H2154   0.990       .  S
O2091      C2111   1.283       .  A
O2092      C2113   1.264       .  A
O2093     Zr2103   2.489       .  S
O2093      C2112   1.284       .  A
O2094     Zr2102   2.508   1_556  S
O2094      C2113   1.294       .  A
O2097     Zr2102   2.395   1_556  S
O2097     Zr2104   2.374       .  S
O2098     Zr2103   2.430       .  S
O2098      H2133   0.966       .  S
O2099     Zr2102   2.408   1_556  S
O2099      H2136   0.966       .  S
O2100     Zr2119   2.378   1_556  S
Zr2101     O2116   2.330       .  S
Zr2101     O2108   2.391       .  S
Zr2101     O2109   2.379       .  S
Zr2102     O2121   2.436       .  S
Zr2102     O2114   2.434   1_554  S
Zr2102     O2115   2.513       .  S
Zr2102     O2108   2.404       .  S
Zr2102     O2109   2.392       .  S
Zr2103     O2105   2.433   1_556  S
Zr2103     O2127   2.433       .  S
Zr2103     O2129   2.527   1_556  S
Zr2103     O2107   2.392   1_556  S
Zr2104     O2106   2.438       .  S
Zr2104     O2108   2.381   1_556  S
O2105      H2142   0.990       .  S
O2106      H2137   0.990       .  S
O2106      H2151   0.990       .  S
O2108      H2134   0.966       .  S
O2110     Zr2119   2.370       .  S
O2110      H2135   0.964       .  S
C2111      C2365   1.465       .  S
C2112      C2341   1.492       .  S
C2113      C2356   1.489       .  S
O2114      H2150   0.990       .  S
O2115      C2117   1.298       .  A
O2116      C2117   1.267       .  A
C2117      C2512   1.490       .  S
O2118     Zr2119   2.439       .  S
O2118      H2147   0.990       .  S
Zr2119     O2122   2.437       .  S
Zr2119     O2123   2.438       .  S
Zr2119     O2124   2.385       .  S
O2120      C2125   1.288       .  A
O2121      H2138   0.990       .  S
O2121      H2153   0.990       .  S
O2122      H2139   0.990       .  S
O2123      H2143   0.990       .  S
O2123      H2152   0.990       .  S
O2124      C2125   1.277       .  A
C2125      C2488   1.475       .  S
O2126      H2145   0.990       .  S
O2127      H2141   0.990       .  S
O2127      H2148   0.990       .  S
O2128      C2132   1.262       .  A
O2129      C2132   1.298       .  A
O2130      H2140   0.990       .  S
O2131      H2144   0.990   1_556  S
C2132      C2500   1.490       .  S
Zr2155     O2156   2.435       .  S
Zr2155     O2157   2.410       .  S
Zr2155     O2158   2.405       .  S
Zr2155     O2161   2.401       .  S
Zr2155     O2163   2.381       .  S
Zr2155     O2164   2.397       .  S
Zr2155     O2165   2.408       .  S
Zr2155     O2166   2.400       .  S
O2156      H2212   0.990       .  S
O2156      H2220   0.990       .  S
O2157      C2177   1.279       .  A
O2158      C2179   1.273       .  A
O2159     Zr2169   2.497       .  S
O2159      C2178   1.290       .  A
O2160     Zr2168   2.435       .  S
O2160      C2179   1.282       .  A
O2161      C2178   1.271       .  A
O2162     Zr2170   2.436       .  S
O2162      C2177   1.283       .  A
O2163     Zr2168   2.402       .  S
O2163     Zr2170   2.375       .  S
O2164     Zr2169   2.427       .  S
O2164     Zr2170   2.369       .  S
O2164      H2199   0.966       .  S
O2165     Zr2168   2.416       .  S
O2165     Zr2185   2.382       .  S
O2165      H2202   0.966       .  S
O2166     Zr2169   2.422       .  S
O2166     Zr2185   2.376       .  S
Zr2167     O2192   2.446       .  S
Zr2167     O2186   2.436       .  S
Zr2167     O2194   2.392       .  S
Zr2167     O2182   2.388       .  S
Zr2167     O2173   2.397       .  S
Zr2167     O2174   2.413       .  S
Zr2167     O2175   2.370       .  S
Zr2167     O2176   2.387       .  S
Zr2168     O2187   2.436       .  S
Zr2168     O2181   2.464       .  S
Zr2168     O2174   2.415       .  S
Zr2168     O2175   2.400       .  S
Zr2169     O2171   2.434       .  S
Zr2169     O2193   2.433       .  S
Zr2169     O2195   2.563       .  S
Zr2169     O2173   2.394       .  S
Zr2169     O2176   2.379       .  S
Zr2170     O2196   2.434       .  S
Zr2170     O2197   2.435       .  S
Zr2170     O2172   2.437       .  S
Zr2170     O2173   2.400       .  S
Zr2170     O2174   2.400       .  S
O2171      H2208   0.990       .  S
O2172      H2203   0.990       .  S
O2172      H2217   0.990       .  S
O2174      H2200   0.965       .  S
O2175     Zr2185   2.357       .  S
O2176     Zr2185   2.380       .  S
O2176      H2201   0.964       .  S
C2177      C2317   1.483       .  S
C2178      C2305   1.487       .  S
C2179      C2329   1.447       .  S
O2180      H2216   0.990       .  S
O2181      C2183   1.270       .  A
O2182      C2183   1.261       .  A
C2183      C2449   1.483       .  S
O2184     Zr2185   2.439   1_545  S
O2184      H2213   0.990       .  S
Zr2185     O2188   2.438       .  S
Zr2185     O2189   2.436       .  S
Zr2185     O2190   2.393       .  S
O2186      C2191   1.289       .  A
O2187      H2204   0.990       .  S
O2187      H2219   0.990       .  S
O2188      H2205   0.990   1_565  S
O2189      H2209   0.990   1_565  S
O2189      H2218   0.990       .  S
O2190      C2191   1.278       .  A
C2191      C2416   1.471       .  S
O2192      H2211   0.990       .  S
O2192      H2215   0.988       .  S
O2193      H2207   0.990       .  S
O2193      H2214   0.990       .  S
O2194      C2198   1.268       .  A
O2195      C2198   1.301       .  A
O2196      H2206   0.990       .  S
O2197      H2210   0.990       .  S
C2198      C2377   1.529       .  S
C2221      C2222   1.412       .  D
C2221      C2296   1.555       .  S
C2221      C2344   1.490       .  S
C2222      C2308   1.506       .  S
C2223      C2248   1.520       .  S
C2223      C2224   1.429       .  A
C2223      C2228   1.435       .  A
C2224      C2293   1.481       .  S
C2224      C2225   1.419       .  A
C2225      C2272   1.507       .  S
C2225      C2226   1.417       .  A
C2226      C2233   1.516       .  S
C2226      C2227   1.436       .  A
C2227      C2281   1.486       .  S
C2227      C2228   1.443       .  A
C2228      C2257   1.539       .  S
C2229      C2230   1.392       .  D
C2229      C2245   1.526       .  S
C2229      C2353   1.489       .  S
C2230      C2320   1.480       .  S
C2231      C2232   1.381       .  D
C2231      C2368   1.502       .  S
C2232      C2332   1.481       .  S
C2233      C2234   1.398       .  A
C2233      C2238   1.416       .  A
C2234      C2235   1.403       .  A
C2234      H2239   1.083       .  S
C2235      C2236   1.424       .  A
C2235      O2240   1.369       .  S
C2236      C2237   1.410       .  A
C2237      C2238   1.416       .  A
C2237      H2241   1.082   1_655  S
C2238      O2242   1.369       .  S
O2240      H2244   0.992       .  S
O2242      H2243   0.992       .  S
C2245      C2246   1.405       .  A
C2245      C2250   1.423       .  A
C2246      C2247   1.400       .  A
C2246      H2251   1.076       .  S
C2247      C2248   1.416       .  A
C2247      O2252   1.367       .  S
C2248      C2249   1.405       .  A
C2249      C2250   1.402       .  A
C2249      H2253   1.083       .  S
C2250      O2254   1.371       .  S
O2252      H2256   0.992       .  S
O2254      H2255   0.992       .  S
C2257      C2258   1.413       .  A
C2257      C2262   1.421       .  A
C2258      C2259   1.404       .  A
C2258      H2263   1.075       .  S
C2259      C2260   1.406       .  A
C2260      C2261   1.404       .  A
C2261      C2262   1.417       .  A
C2261      H2265   1.078       .  S
C2262      O2266   1.375       .  S
O2264      H2268   0.992       .  S
O2266      H2267   0.992       .  S
C2269      C2270   1.415       .  A
C2269      C2274   1.426       .  A
C2270      C2271   1.419       .  A
C2270      H2275   1.079   1_655  S
C2271      C2272   1.414       .  A
C2271      O2276   1.373       .  S
C2272      C2273   1.393       .  A
C2273      C2274   1.396       .  A
C2273      H2277   1.084       .  S
C2274      O2278   1.371       .  S
O2276      H2280   0.992       .  S
O2278      H2279   0.992       .  S
C2281      C2282   1.393       .  A
C2281      C2286   1.394       .  A
C2282      C2283   1.406       .  A
C2282      H2287   1.084       .  S
C2283      C2284   1.436       .  A
C2283      O2288   1.369       .  S
C2284      C2285   1.420       .  A
C2285      C2286   1.395       .  A
C2285      H2289   1.052       .  S
C2286      O2290   1.373       .  S
O2288      H2292   0.993       .  S
O2290      H2291   0.992       .  S
C2293      C2294   1.383       .  A
C2293      C2298   1.409       .  A
C2294      C2295   1.394       .  A
C2294      H2299   1.085       .  S
C2295      C2296   1.440       .  A
C2295      O2300   1.370       .  S
C2296      C2297   1.415       .  A
C2297      C2298   1.395       .  A
C2297      H2301   1.069       .  S
C2298      O2302   1.377       .  S
O2300      H2304   0.993       .  S
O2302      H2303   0.990       .  S
C2305      C2306   1.407       .  A
C2305      C2310   1.409       .  A
C2306      C2307   1.407       .  A
C2306      H2311   1.081       .  S
C2307      C2308   1.411       .  A
C2307      O2312   1.371       .  S
C2308      C2309   1.412       .  A
C2309      C2310   1.409       .  A
C2309      H2313   1.083       .  S
C2310      O2314   1.371       .  S
O2312      H2316   0.992       .  S
O2314      H2315   0.992       .  S
C2317      C2318   1.407       .  A
C2317      C2322   1.412       .  A
C2318      C2319   1.390       .  A
C2318      H2323   1.081       .  S
C2319      C2320   1.403       .  A
C2319      O2324   1.373       .  S
C2320      C2321   1.404       .  A
C2321      C2322   1.402       .  A
C2321      H2325   1.084       .  S
C2322      O2326   1.371       .  S
O2324      H2328   0.992       .  S
O2326      H2327   0.992       .  S
C2329      C2330   1.396       .  A
C2329      C2334   1.396       .  A
C2330      C2331   1.405       .  A
C2330      H2335   1.083       .  S
C2331      C2332   1.416       .  A
C2331      O2336   1.375       .  S
C2332      C2333   1.401       .  A
C2333      C2334   1.386       .  A
C2333      H2337   1.083       .  S
C2334      O2338   1.368       .  S
C2341      C2342   1.401       .  A
C2341      C2346   1.410       .  A
C2342      C2343   1.392       .  A
C2342      H2347   1.065       .  S
C2343      C2344   1.402       .  A
C2343      O2348   1.374       .  S
C2344      C2345   1.416       .  A
C2345      C2346   1.418       .  A
C2345      H2349   1.083       .  S
C2346      O2350   1.370       .  S
O2348      H2352   0.990   1_565  S
O2350      H2351   0.992       .  S
C2353      C2354   1.387       .  A
C2353      C2358   1.420       .  A
C2354      C2355   1.389       .  A
C2354      H2359   1.084       .  S
C2355      C2356   1.419       .  A
C2355      O2360   1.366       .  S
C2356      C2357   1.402       .  A
C2357      C2358   1.410       .  A
C2357      H2361   1.083       .  S
C2358      O2362   1.372       .  S
O2360      H2364   0.992       .  S
O2362      H2363   0.992       .  S
C2365      C2370   1.400       .  A
C2366      C2367   1.406       .  A
C2366      H2371   1.076       .  S
C2367      O2372   1.373       .  S
C2369      C2370   1.386       .  A
C2369      H2373   1.073       .  S
C2370      O2374   1.373       .  S
O2372      H2376   0.991       .  S
O2374      H2375   0.992       .  S
C2377      C2378   1.418       .  A
C2377      C2382   1.420       .  A
C2378      C2379   1.436       .  A
C2378      H2383   1.082       .  S
C2379      C2380   1.422       .  A
C2379      O2384   1.370       .  S
C2380      C2381   1.393       .  A
C2381      C2382   1.394       .  A
C2381      H2385   1.085       .  S
C2382      O2386   1.369       .  S
O2384      H2388   0.991       .  S
O2386      H2387   0.992       .  S
C2389      C2390   1.410       .  A
C2389      C2394   1.413       .  A
C2390      C2391   1.405       .  A
C2390      H2395   1.081       .  S
C2391      C2392   1.410       .  A
C2391      O2396   1.373       .  S
C2392      C2393   1.404       .  A
C2393      C2394   1.393       .  A
C2393      H2397   1.083       .  S
C2394      O2398   1.371       .  S
O2396      H2400   0.991       .  S
O2398      H2399   0.992       .  S
C2401      C2402   1.408       .  A
C2401      C2406   1.408       .  A
C2402      C2403   1.401       .  A
C2402      H2407   1.082       .  S
C2403      C2404   1.415       .  A
C2403      O2408   1.367       .  S
C2404      C2405   1.413       .  A
C2405      C2406   1.402       .  A
C2405      H2409   1.083       .  S
C2406      O2410   1.375       .  S
O2408      H2412   0.992       .  S
O2410      H2411   0.991       .  S
C2413      C2414   1.395       .  A
C2413      C2418   1.401   1_565  A
C2414      C2415   1.389       .  A
C2414      H2419   1.083       .  S
C2415      C2416   1.404       .  A
C2415      O2420   1.361       .  S
C2416      C2417   1.410       .  A
C2417      C2418   1.389   1_565  A
C2417      H2421   1.083   1_565  S
O2420      H2424   0.989       .  S
O2422      H2423   0.991       .  S
C2425      C2426   1.402       .  A
C2426      C2427   1.399       .  A
C2426      H2431   1.083       .  S
C2427      C2428   1.413       .  A
C2427      O2432   1.372       .  S
C2429      C2430   1.401       .  A
C2429      H2433   1.081       .  S
C2430      O2434   1.371       .  S
O2432      H2436   0.992       .  S
O2434      H2435   0.992       .  S
C2437      C2438   1.418       .  A
C2438      C2439   1.407       .  A
C2438      H2443   1.069       .  S
C2439      C2440   1.408       .  A
C2439      O2444   1.374       .  S
C2441      C2442   1.394       .  A
C2441      H2445   1.084       .  S
C2442      O2446   1.372       .  S
O2444      H2448   0.992       .  S
O2446      H2447   0.993       .  S
C2449      C2450   1.407       .  A
C2450      C2451   1.380       .  A
C2450      H2455   1.081       .  S
C2451      C2452   1.400       .  A
C2451      O2456   1.374       .  S
C2453      C2454   1.412       .  A
C2453      H2457   1.083       .  S
C2454      O2458   1.370       .  S
O2456      H2460   0.992       .  S
O2458      H2459   0.992       .  S
C2461      C2462   1.401       .  A
C2462      C2463   1.393       .  A
C2462      H2467   1.083       .  S
C2463      C2464   1.419       .  A
C2463      O2468   1.372       .  S
C2465      C2466   1.408       .  A
C2465      H2469   1.079       .  S
C2466      O2470   1.374       .  S
O2468      H2472   0.989       .  S
O2470      H2471   0.992       .  S
C2473      C2478   1.414       .  A
C2474      C2475   1.405       .  A
C2474      H2479   1.081       .  S
C2475      O2480   1.376       .  S
C2476      C2477   1.402       .  A
C2477      C2478   1.391       .  A
C2477      H2481   1.083       .  S
C2478      O2482   1.369       .  S
O2480      H2484   0.992       .  S
O2482      H2483   0.992       .  S
C2485      C2486   1.406       .  A
C2485      C2490   1.402       .  A
C2486      C2487   1.401       .  A
C2486      H2491   1.084   1_655  S
C2487      C2488   1.408       .  A
C2488      C2489   1.410       .  A
C2489      C2490   1.392       .  A
C2489      H2493   1.084       .  S
C2490      O2494   1.375       .  S
O2492      H2496   0.991       .  S
O2494      H2495   0.992       .  S
C2497      C2498   1.409       .  A
C2497      C2502   1.415       .  A
C2498      C2499   1.418       .  A
C2498      H2503   1.083       .  S
C2499      C2500   1.417       .  A
C2499      O2504   1.371       .  S
C2500      C2501   1.398       .  A
C2501      C2502   1.404       .  A
C2501      H2505   1.083       .  S
C2502      O2506   1.371       .  S
O2504      H2508   0.992       .  S
O2506      H2507   0.990       .  S
C2509      C2510   1.392       .  A
C2509      C2514   1.426       .  A
C2510      C2511   1.383       .  A
C2510      H2515   1.079       .  S
C2511      C2512   1.419       .  A
C2511      O2516   1.373       .  S
C2512      C2513   1.399       .  A
C2513      C2514   1.414       .  A
C2513      H2517   1.083       .  S
C2514      O2518   1.373       .  S
O2516      H2520   0.993       .  S
O2518      H2519   0.991       .  S
C2521      C2522   1.402       .  A
C2521      C2526   1.409       .  A
C2522      C2523   1.395       .  A
C2522      H2527   1.083       .  S
C2523      C2524   1.413       .  A
C2523      O2528   1.372       .  S
C2524      C2525   1.409       .  A
C2525      C2526   1.402       .  A
C2525      H2529   1.076       .  S
C2526      O2530   1.375       .  S
O2528      H2532   0.991       .  S
O2530      H2531   0.992       .  S
C2533      C2538   1.416       .  A
C2534      C2535   1.402   1_545  A
C2534      H2539   1.083       .  S
C2535      C2536   1.409       .  A
C2535      O2540   1.375       .  S
C2536      C2537   1.410       .  A
C2537      H2541   1.082       .  S
C2538      O2542   1.371       .  S
O2540      H2544   0.992       .  S
O2542      H2543   0.992       .  S
C2545      C2546   1.411       .  A
C2545      C2550   1.411       .  A
C2546      C2547   1.401       .  A
C2546      H2551   1.078       .  S
C2547      C2548   1.406       .  A
C2547      O2552   1.373       .  S
C2548      C2549   1.413       .  A
C2549      C2550   1.408       .  A
C2549      H2553   1.083       .  S
C2550      O2554   1.370       .  S
O2552      H2556   0.992       .  S
O2554      H2555   0.991       .  S
C2557      C2558   1.396       .  A
C2557      C2562   1.403       .  A
C2558      C2559   1.404   1_565  A
C2558      H2563   1.084       .  S
C2559      O2564   1.365       .  S
C2561      C2562   1.402   1_545  A
C2562      O2566   1.371       .  S
O2564      H2568   0.991       .  S
O2566      H2567   0.991       .  S
C2569      C2570   1.394       .  A
C2569      C2574   1.418       .  A
C2570      C2571   1.390       .  A
C2570      H2575   1.083       .  S
C2571      C2572   1.428       .  A
C2572      C2573   1.413       .  A
C2573      C2574   1.420       .  A
C2573      H2577   1.080       .  S
C2574      O2578   1.373       .  S
O2576      H2580   0.993       .  S
O2578      H2579   0.992       .  S
C2581      C2582   1.406       .  A
C2581      C2586   1.410       .  A
C2582      C2583   1.401       .  A
C2582      H2587   1.083       .  S
C2583      C2584   1.415       .  A
C2583      O2588   1.369       .  S
C2584      C2585   1.408       .  A
C2585      C2586   1.397       .  A
C2585      H2589   1.083       .  S
C2586      O2590   1.371       .  S
O2588      H2592   0.992       .  S
O2590      H2591   0.991       .  S
C2593      C2594   1.394       .  A
C2593      C2598   1.416       .  A
C2594      C2595   1.392       .  A
C2594      H2599   1.085       .  S
C2595      C2596   1.410       .  A
C2595      O2600   1.354       .  S
C2596      C2597   1.409       .  A
C2597      C2598   1.414       .  A
C2597      H2601   1.083       .  S
C2598      O2602   1.373       .  S
O2600      H2604   0.991       .  S
O2602      H2603   0.992       .  S
C2605      C2606   1.395       .  A
C2605      C2610   1.410       .  A
C2606      C2607   1.379       .  A
C2606      H2611   1.069       .  S
C2607      C2608   1.391       .  A
C2607      O2612   1.375       .  S
C2608      C2609   1.412       .  A
C2609      C2610   1.417       .  A
C2609      H2613   1.082       .  S
C2610      O2614   1.370       .  S
O2612      H2616   0.992       .  S
O2614      H2615   0.991       .  S
C2617      C2618   1.404       .  A
C2617      C2622   1.405       .  A
C2618      C2619   1.399       .  A
C2618      H2623   1.084       .  S
C2619      C2620   1.409       .  A
C2619      O2624   1.372       .  S
C2620      C2621   1.406       .  A
C2621      C2622   1.400       .  A
C2621      H2625   1.084       .  S
C2622      O2626   1.371       .  S
O2624      H2628   0.992       .  S
O2626      H2627   0.992       .  S
C2629      C2630   1.418   1_655  A
C2629      C2634   1.406       .  A
C2630      C2631   1.409       .  A
C2630      H2635   1.082       .  S
C2631      C2632   1.404   1_455  A
C2631      O2636   1.371       .  S
C2632      C2633   1.401       .  A
C2633      C2634   1.388       .  A
C2633      H2637   1.077       .  S
C2634      O2638   1.372       .  S
O2636      H2640   0.991       .  S
O2638      H2639   0.991       .  S
C2641      C2642   1.397       .  A
C2641      C2646   1.400       .  A
C2642      C2643   1.393       .  A
C2642      H2647   1.084       .  S
C2643      C2644   1.413       .  A
C2643      O2648   1.371       .  S
C2644      C2645   1.404       .  A
C2645      C2646   1.384       .  A
C2645      H2649   1.082       .  S
C2646      O2650   1.373       .  S
O2648      H2652   0.992       .  S
O2650      H2651   0.991       .  S
C2653      C2654   1.405       .  A
C2653      C2658   1.414       .  A
C2654      C2655   1.413       .  A
C2654      H2659   1.083       .  S
C2655      C2656   1.422       .  A
C2655      O2660   1.372       .  S
C2656      C2657   1.408       .  A
C2657      C2658   1.410       .  A
C2657      H2661   1.083       .  S
C2658      O2662   1.368       .  S
O2660      H2664   0.992       .  S
O2662      H2663   0.985       .  S
