geometry optimzed in LAMMPS
_audit_creation_date              2020-11-30 
_audit_creation_method            'lammps2cif' 
_symmetry_space_group_name_H-M    'P1' 
_symmetry_Int_Tables_number       1 
_symmetry_cell_setting            triclinic 
loop_ 
_symmetry_equiv_pos_as_xyz 
  x,y,z 
_cell_length_a                    43.44211917 
_cell_length_b                    43.422419615396684 
_cell_length_c                    37.15686762763161 
_cell_angle_alpha                 90.02541686095451 
_cell_angle_beta                  89.9852527874247 
_cell_angle_gamma                 119.97731206245918 
loop_ 
_atom_site_label 
_atom_site_type_symbol 
_atom_site_fract_x 
_atom_site_fract_y 
_atom_site_fract_z 
_atom_site_charge 
C1          C  0.12329931  0.46020118  0.13125227     0.79400
N2          N  0.14474846  0.49211036  0.14731154    -0.78900
C3          C  0.14384277  0.02154582  0.13670062     0.81900
N4          N  0.12132943  0.01900589  0.11046449    -0.78800
C5          C  0.09986998  0.48769764  0.09418425     0.82000
N6          N  0.10085433  0.45795023  0.10420321    -0.80500
C7          C  0.24932430  0.22043865  0.20656869     0.79400
N8          N  0.26935898  0.22158089  0.23560954    -0.78900
C9          C  0.27047156  0.19184708  0.24519542     0.81900
N10         N  0.25174808  0.16167317  0.22607849    -0.78800
C11         C  0.23215079  0.16019354  0.19743943     0.82000
N12         N  0.23053971  0.18947286  0.18787444    -0.80500
C13         C  0.05888218  0.16028342  0.12917996     0.79400
N14         N  0.02710275  0.14864376  0.14587252    -0.78900
C15         C  0.49811819  0.11770763  0.13604640     0.81900
N16         N  0.50132514  0.09770901  0.11022482    -0.78800
C17         C  0.03252177  0.10836513  0.09331601     0.82000
N18         N  0.06176779  0.13996162  0.10255784    -0.80500
C19         C  0.30085093  0.02272468  0.21159785     0.79400
N20         N  0.29928919  0.04199181  0.24013729    -0.78900
C21         C  0.32959975  0.07154989  0.25141495     0.81900
N22         N  0.36058390  0.08126126  0.23436635    -0.78800
C23         C  0.36238498  0.06255792  0.20637335     0.82000
N24         N  0.33249082  0.03333285  0.19504111    -0.80500
C25         C  0.99642373  0.27338664  0.21006493     0.79400
N26         N  0.48468816  0.29229413  0.19117681    -0.78900
C27         C  0.45418007  0.29146083  0.20051427     0.81000
N28         N  0.43538298  0.27154779  0.22882594    -0.78800
C29         C  0.44636149  0.25240560  0.24811756     0.82000
N30         N  0.47722040  0.25333430  0.23892925    -0.80500
C31         C  0.35794857  0.39210908  0.12430441     0.79400
N32         N  0.36850424  0.37059155  0.13997405    -0.78900
C33         C  0.39938515  0.37236910  0.13001049     0.81900
N34         N  0.42013481  0.39658764  0.10530536    -0.78800
C35         C  0.41041717  0.41837455  0.08958693     0.82000
N36         N  0.37895256  0.41622216  0.09874529    -0.80500
C37         C  0.14407687  0.32234012  0.18109079     0.01500
C38         C  0.16492642  0.35966373  0.17727889     0.01500
C39         C  0.20238455  0.37636436  0.17851380     0.01500
C40         C  0.21905191  0.35550312  0.17764469     0.01500
C41         C  0.19807406  0.31804761  0.18114450     0.01500
C42         C  0.16045982  0.30117196  0.18037509     0.01500
O43         O  0.38330940  0.16334017  0.41140341    -0.79300
C44         C  0.36406697  0.25014146  0.39738143     0.81800
O45         O  0.26184675  0.10965566  0.36289788    -0.80400
O46         O  0.31765247  0.21767278  0.28846492    -0.81900
O47         O  0.42305887  0.20329100  0.28951529    -0.81700
O48         O  0.41089382  0.15316288  0.36633413    -0.80300
Zn49       Zn  0.34582038  0.17230390  0.39107923     1.55700
O50         O  0.40075533  0.23975252  0.28867437    -0.81700
Cd51       Cd  0.38569758  0.16271681  0.32317946     1.59700
Cd52       Cd  0.29938146  0.13441899  0.32164981     1.59600
O53         O  0.36188726  0.11862940  0.29084762    -0.81700
O54         O  0.34720150  0.17248154  0.33971462    -1.92200
Cd55       Cd  0.35780288  0.22074625  0.32208014     1.59900
O56         O  0.30307098  0.09601200  0.29040355    -0.81600
O57         O  0.36854243  0.25703361  0.36384210    -0.80300
C58         C  0.26784224  0.11247704  0.39666558     0.82200
C59         C  0.40645922  0.15596679  0.39985558     0.81900
O60         O  0.35492348  0.21938725  0.40966631    -0.79300
C61         C  0.42301223  0.23088120  0.27772744     0.82700
O62         O  0.29826017  0.13444322  0.40946106    -0.79400
C63         C  0.33091894  0.09582848  0.27982865     0.82800
C64         C  0.29100654  0.18993582  0.27561656     0.83200
O65         O  0.28224807  0.15873186  0.28635048    -0.81800
C66         C  0.33027505  0.44790942  0.54847741     0.79400
N67         N  0.31085898  0.42658980  0.57654182    -0.78900
C68         C  0.27804381  0.42209092  0.58368223     0.81900
N69         N  0.26516530  0.43875899  0.56317749    -0.78800
C70         C  0.28432909  0.46011446  0.53577228     0.82000
N71         N  0.31685720  0.46463563  0.52844257    -0.80500
C72         C  0.18936336  0.05989099  0.45662281     0.79400
N73         N  0.20982982  0.08313268  0.43007489    -0.78900
C74         C  0.24202400  0.08625507  0.42184760     0.81900
N75         N  0.25314728  0.06659160  0.43985725    -0.78800
C76         C  0.23303248  0.04366310  0.46577089     0.82000
N77         N  0.20125366  0.04041389  0.47411840    -0.80500
C78         C  0.13812252  0.18542051  0.55088276     0.79400
N79         N  0.17033373  0.19596621  0.53579528    -0.78900
C80         C  0.19966870  0.22593499  0.54694674     0.81900
N81         N  0.19666904  0.24574499  0.57315495    -0.78800
C82         C  0.16515558  0.23542950  0.58932592     0.82000
N83         N  0.13549708  0.20516194  0.57822962    -0.80500
C84         C  0.38973645  0.32784102  0.45803274     0.79400
N85         N  0.35828090  0.31578077  0.47546638    -0.78900
C86         C  0.32967979  0.28427712  0.46661009     0.81900
N87         N  0.33274353  0.26416518  0.44088619    -0.78800
C88         C  0.36347973  0.27555158  0.42278918     0.82000
N89         N  0.39251607  0.30757993  0.43129111    -0.80500
C90         C  0.06757622  0.38082364  0.55741564     0.79400
N91         N  0.09004481  0.38268203  0.58424923    -0.78900
C92         C  0.09065474  0.35267261  0.59402760     0.81900
N93         N  0.06899261  0.32153089  0.57736379    -0.78800
C94         C  0.04597465  0.31929563  0.55174740     0.82000
N95         N  0.04571636  0.34908375  0.54144377    -0.80500
C96         C  0.45563634  0.12857591  0.46234982     0.79400
N97         N  0.43437474  0.12695114  0.43434538    -0.78900
C98         C  0.43133951  0.15603684  0.42646611     0.81900
N99         N  0.44963502  0.18608307  0.44593877    -0.78800
C100        C  0.47169599  0.18834573  0.47260464     0.82000
N101        N  0.47420516  0.15934883  0.48125208    -0.80500
C102        C  0.47478055  0.48964629  0.50936551     0.01500
C103        C  0.49030066  0.46770472  0.51076475     0.01500
C104        C  0.02763944  0.48337034  0.51407544     0.01500
C105        C  0.04963540  0.02067840  0.51116528     0.01500
C106        C  0.03391743  0.04245662  0.51106106     0.01500
C107        C  0.99678709  0.02692894  0.50673242     0.01500
C108        C  0.29026426  0.29354368  0.79617826     0.79400
N109        N  0.26780931  0.29177388  0.76929358    -0.78900
C110        C  0.26745912  0.32190377  0.75939743     0.81900
N111        N  0.28865934  0.35277275  0.77677930    -0.78800
C112        C  0.31014078  0.35458122  0.80385352     0.82000
N113        N  0.31116067  0.32499405  0.81315279    -0.80500
C114        C  0.41029932  0.05098765  0.88271125     0.79400
N115        N  0.39102187  0.01976020  0.86465989    -0.78900
C116        C  0.39372750  0.49090342  0.87307854     0.81900
N117        N  0.41525827  0.49318079  0.90018669    -0.78800
C118        C  0.43481262  0.02372524  0.91864929     0.82000
N119        N  0.43275950  0.05321031  0.90983245    -0.80500
C120        C  0.22868481  0.48691735  0.80301973     0.79400
N121        N  0.23024106  0.46717927  0.77498414    -0.78900
C122        C  0.20102699  0.43529937  0.76682448     0.81900
N123        N  0.17116492  0.42351085  0.78671711    -0.78800
C124        C  0.16963192  0.44230885  0.81477124     0.82000
N125        N  0.19826816  0.47429301  0.82259066    -0.80500
C126        C  0.47163353  0.35125496  0.88612021     0.79400
N127        N  0.00290892  0.36243089  0.86848771    -0.78900
C128        C  0.03195048  0.39378020  0.87711860     0.81900
N129        N  0.02984427  0.41353856  0.90385405    -0.78800
C130        C  0.49911675  0.40339618  0.92164331     0.82000
N131        N  0.46945478  0.37198350  0.91279029    -0.80500
C132        C  0.16858988  0.11211692  0.88399582     0.79400
N133        N  0.14829256  0.08985903  0.91126274    -0.78900
C134        C  0.11692968  0.08817057  0.92020336     0.81900
N135        N  0.10628771  0.10804125  0.90181583    -0.78800
C136        C  0.12564064  0.12926122  0.87457246     0.82000
N137        N  0.15698809  0.13163257  0.86591758    -0.80500
C138        C  0.03324426  0.23448324  0.80277399     0.79400
N139        N  0.04453502  0.21465240  0.82073138    -0.78900
C140        C  0.07540277  0.21620728  0.81148627     0.81900
N141        N  0.09429323  0.23649295  0.78350044    -0.78800
C142        C  0.08354649  0.25614802  0.76491876     0.82000
N143        N  0.05283191  0.25537870  0.77450605    -0.80500
C144        C  0.31185086  0.15485618  0.83904164     0.01500
C145        C  0.33294617  0.19248558  0.83785703     0.01500
C146        C  0.37057401  0.20902063  0.83793814     0.01500
C147        C  0.38674724  0.18771988  0.83519446     0.01500
C148        C  0.36588380  0.15019060  0.83735147     0.01500
C149        C  0.32831518  0.13372414  0.83754171     0.01500
O150        O  0.05130409  0.99465979  0.08065661    -0.79300
C151        C  0.03300254  0.08286729  0.06783237     0.81800
O152        O  0.43132027  0.44205710  0.03146774    -0.80400
O153        O  0.48451722  0.05031508  0.95941859    -0.81900
O154        O  0.09259253  0.03746097  0.95973986    -0.81700
O155        O  0.07906537  0.48580052  0.03478707    -0.80300
Zn156      Zn  0.01441896  0.00489038  0.06071825     1.55700
O157        O  0.06936436  0.07313755  0.95896038    -0.81700
Cd158      Cd  0.05441369  0.99605306  0.99201501     1.59700
Cd159      Cd  0.46853368  0.46708649  0.99062075     1.59600
O160        O  0.03113720  0.45201239  0.95949476    -0.81700
O161        O  0.01585937  0.00546867  0.00914043    -1.92200
Cd162      Cd  0.02580573  0.05363556  0.99191689     1.59900
O163        O  0.47225874  0.42851207  0.95949928    -0.81600
O164        O  0.03666151  0.08955172  0.03421446    -0.80300
C165        C  0.43657055  0.44509059  0.06530265     0.82200
C166        C  0.07443599  0.48756098  0.06842051     0.81900
O167        O  0.02425018  0.05217959  0.08009391    -0.79300
C168        C  0.09246458  0.06515379  0.94847777     0.82700
O169        O  0.46655168  0.46730341  0.07877523    -0.79400
C170        C  0.00022967  0.42854340  0.94898690     0.82800
C171        C  0.45762111  0.02238592  0.94711527     0.83200
O172        O  0.45009859  0.49127898  0.95693872    -0.81800
O173        O  0.17002666  0.29018302  0.60233994    -0.79300
C174        C  0.11738192  0.35300464  0.61823497     0.81800
O175        O  0.26288612  0.40184560  0.64432652    -0.80400
O176        O  0.16786573  0.38944108  0.72667470    -0.81900
O177        O  0.13014558  0.27042475  0.72498259    -0.81700
O178        O  0.16285746  0.25465443  0.64864399    -0.80300
Zn179      Zn  0.17803546  0.33652352  0.62192972     1.55700
O180        O  0.10647541  0.30576285  0.72466117    -0.81700
Cd181      Cd  0.17290549  0.29035007  0.69085846     1.59700
Cd182      Cd  0.22978262  0.37667649  0.68870934     1.59600
O183        O  0.21528866  0.29504802  0.72222109    -0.81700
O184        O  0.18117979  0.33773805  0.67329630    -1.92200
Cd185      Cd  0.14338110  0.34728466  0.69232860     1.59900
O186        O  0.25178470  0.35378670  0.72018646    -0.81600
O187        O  0.11663136  0.35821122  0.65189169    -0.80300
C188        C  0.25413061  0.39773743  0.61114843     0.82200
C189        C  0.16424853  0.26053114  0.61490835     0.81900
O190        O  0.13851335  0.34381970  0.60479424    -0.79300
C191        C  0.10720741  0.27843117  0.73597517     0.82700
O192        O  0.22311949  0.37481239  0.60067966    -0.79400
C193        C  0.24374313  0.32300325  0.73174197     0.82800
C194        C  0.19911247  0.41235985  0.73672884     0.83200
O195        O  0.22679832  0.41363086  0.72332822    -0.81800
C196        C  0.42526812  0.20446342  0.82663438    -0.06900
C197        C  0.44949433  0.21246708  0.85485119    -0.18000
C198        C  0.48558877  0.22519896  0.84800231     0.10300
C199        C  0.49798276  0.22985453  0.81202518    -0.06800
C200        C  0.47417179  0.22406118  0.78399073    -0.18100
C201        C  0.43804397  0.21110913  0.79067260     0.10300
S202        S  0.51440813  0.23487295  0.88637243    -0.33000
S203        S  0.41034376  0.20207985  0.75130980    -0.33000
H204        H  0.37699203  0.18675134  0.76796038     0.28300
H205        H  0.04488570  0.26201886  0.86941198     0.28300
H206        H  0.44006984  0.20811545  0.88240725     0.18900
H207        H  0.48330891  0.22736371  0.75635897     0.18900
C208        C  0.20368697  0.11680047  0.87360954    -0.06900
C209        C  0.21116468  0.11730701  0.83668967    -0.18000
C210        C  0.24549945  0.12785258  0.82415386     0.10300
C211        C  0.27351119  0.13832778  0.84920916    -0.06800
C212        C  0.26555617  0.13578991  0.88616457    -0.18100
C213        C  0.23134043  0.12574878  0.89859479     0.10300
S214        S  0.25093043  0.12773700  0.77600626    -0.33000
S215        S  0.22562071  0.12806076  0.94635112    -0.33000
H216        H  0.20510695  0.14476302  0.94331755     0.28300
H217        H  0.28759669  0.14111664  0.77515383     0.28300
H218        H  0.19012217  0.11046087  0.81723472     0.18900
H219        H  0.28671591  0.14344731  0.90562550     0.18900
C220        C  0.08802331  0.19489554  0.83008420    -0.06900
C221        C  0.06480742  0.15828598  0.83338033    -0.18000
C222        C  0.07697627  0.13594170  0.84578795     0.10300
C223        C  0.11295404  0.15065391  0.85613366    -0.06800
C224        C  0.13616186  0.18728617  0.85284058    -0.18100
C225        C  0.12402363  0.20960965  0.84027667     0.10300
S226        S  0.04573240  0.08878333  0.84607226    -0.33000
S227        S  0.15541355  0.25673204  0.83921574    -0.33000
H228        H  0.13033601  0.26745935  0.84631814     0.28300
H229        H  0.07099866  0.07839964  0.83856661     0.28300
H230        H  0.03742374  0.14682049  0.82466536     0.18900
H231        H  0.16356601  0.19876971  0.86149137     0.18900
C232        C  0.44115286  0.31630563  0.87568268    -0.06900
C233        C  0.43191605  0.31045880  0.83909055    -0.18000
C234        C  0.40800603  0.27652792  0.82566940     0.10300
C235        C  0.39291497  0.24705717  0.84942709    -0.06800
C236        C  0.40146642  0.25322452  0.88626257    -0.18100
C237        C  0.42520019  0.28724761  0.89959489     0.10300
S238        S  0.39980228  0.27374844  0.77794415    -0.33000
S239        S  0.43571181  0.29126606  0.94689076    -0.33000
H240        H  0.47219657  0.31549812  0.94275694     0.28300
H241        H  0.37474970  0.23775748  0.77645084     0.28300
H242        H  0.44438289  0.33257681  0.82047128     0.18900
H243        H  0.39052691  0.23092709  0.90471309     0.18900
C244        C  0.25812664  0.02329200  0.81108264    -0.06900
C245        C  0.26667091  0.03352679  0.84737177    -0.18000
C246        C  0.29057304  0.06903114  0.85698763     0.10300
C247        C  0.30615355  0.09491742  0.82981514    -0.06800
C248        C  0.29873776  0.08436577  0.79366818    -0.18100
C249        C  0.27476253  0.04924791  0.78401396     0.10300
S250        S  0.30040886  0.08122939  0.90374342    -0.33000
S251        S  0.26414834  0.04029345  0.73691689    -0.33000
H252        H  0.22717377  0.02049654  0.74235407     0.28300
H253        H  0.27882859  0.04699057  0.91800913     0.28300
H254        H  0.25385601  0.01372878  0.86823112     0.18900
H255        H  0.31039116  0.10403800  0.77258326     0.18900
C256        C  0.06628399  0.40610792  0.85909258    -0.06900
C257        C  0.07834071  0.38192700  0.85402798    -0.18000
C258        C  0.11271635  0.39329622  0.84153683     0.10300
C259        C  0.13549187  0.42966607  0.83332160    -0.06800
C260        C  0.12337349  0.45379083  0.83835948    -0.18100
C261        C  0.08893720  0.44238625  0.85049343     0.10300
S262        S  0.12625168  0.36029680  0.83805273    -0.33000
S263        S  0.07496052  0.47513993  0.85238148    -0.33000
H264        H  0.03940623  0.45147208  0.84287624     0.28300
H265        H  0.16216510  0.38366019  0.84646252     0.28300
H266        H  0.06134465  0.35418812  0.86116748     0.18900
H267        H  0.14025084  0.48150352  0.83104185     0.18900
C268        C  0.38299004  0.12875357  0.84709122    -0.06900
C269        C  0.38995540  0.12693598  0.88380425    -0.18000
C270        C  0.40073457  0.10331985  0.89646723     0.10300
C271        C  0.40562644  0.08136248  0.87181068    -0.06800
C272        C  0.40143351  0.08535997  0.83489060    -0.18100
C273        C  0.39021370  0.10850028  0.82222503     0.10300
S274        S  0.40491934  0.10056613  0.94440299    -0.33000
S275        S  0.38575004  0.10991796  0.77414562    -0.33000
H276        H  0.37055723  0.13147921  0.77373910     0.28300
H277        H  0.38560447  0.06319101  0.94545237     0.28300
H278        H  0.38496510  0.14268193  0.90307854     0.18900
H279        H  0.40587295  0.06928813  0.81556325     0.18900
C280        C  0.29406019  0.26266284  0.80691105    -0.06900
C281        C  0.29927040  0.25854040  0.84365014    -0.18000
C282        C  0.31006495  0.23466145  0.85531493     0.10300
C283        C  0.31590218  0.21417767  0.82958535    -0.06800
C284        C  0.30806437  0.21639375  0.79330306    -0.18100
C285        C  0.29773735  0.24049338  0.78162500     0.10300
S286        S  0.31645283  0.23270536  0.90308649    -0.33000
S287        S  0.29355049  0.24415301  0.73381257    -0.33000
H288        H  0.31486047  0.28142615  0.73325009     0.28300
H289        H  0.32516411  0.20572969  0.90284343     0.28300
H290        H  0.29605494  0.27504097  0.86347058     0.18900
H291        H  0.31281641  0.20118640  0.77323046     0.18900
C292        C  0.33219701  0.38895494  0.82221040    -0.06900
C293        C  0.34396791  0.42023910  0.80195963    -0.18000
C294        C  0.36448163  0.45380899  0.81738052     0.10300
C295        C  0.37286210  0.45654384  0.85435626    -0.06800
C296        C  0.36148216  0.42527890  0.87450941    -0.18100
C297        C  0.34113776  0.39170906  0.85908446     0.10300
S298        S  0.38064588  0.49168265  0.78785092    -0.33000
S299        S  0.32600695  0.35393096  0.88861294    -0.33000
H300        H  0.29094172  0.33667620  0.87545606     0.28300
H301        H  0.41486282  0.00967589  0.80309930     0.28300
H302        H  0.33783782  0.41858761  0.77349243     0.18900
H303        H  0.36763552  0.42693588  0.90297464     0.18900
C304        C  0.45961696  0.09776023  0.47251672    -0.06900
C305        C  0.97446903  0.08474000  0.44752855    -0.18000
C306        C  0.98557084  0.06075411  0.45786304     0.10300
C307        C  0.48186841  0.04940730  0.49416770    -0.06800
C308        C  0.46544163  0.06110536  0.51877859    -0.18100
C309        C  0.45411796  0.08488784  0.50830795     0.10300
S310        S  0.00609721  0.04737937  0.42362885    -0.33000
S311        S  0.43316084  0.09817528  0.54199228    -0.33000
H312        H  0.41233549  0.10492961  0.51779532     0.28300
H313        H  0.99973283  0.01538380  0.43943977     0.28300
H314        H  0.97904125  0.09463025  0.42016770     0.18900
H315        H  0.46202572  0.05224661  0.54642779     0.18900
C316        C  0.06524884  0.41227293  0.54589758    -0.06900
C317        C  0.05860006  0.43137655  0.57203346    -0.18000
C318        C  0.04742737  0.45545725  0.56250522     0.10300
C319        C  0.04311658  0.46107960  0.52557945    -0.06800
C320        C  0.05218304  0.44377814  0.49936672    -0.18100
C321        C  0.06346274  0.41977355  0.50909022     0.10300
S322        S  0.03780359  0.47624479  0.59960713    -0.33000
S323        S  0.07516018  0.39948832  0.47327296    -0.33000
H324        H  0.09933921  0.39409942  0.49368571     0.28300
H325        H  0.02389269  0.49397963  0.58020192     0.28300
H326        H  0.05991411  0.42582487  0.60025260     0.18900
H327        H  0.04980675  0.44850844  0.47113129     0.18900
C328        C  0.49172431  0.22199297  0.49246028    -0.06900
C329        C  0.99340815  0.22093149  0.53006570    -0.18000
C330        C  0.00908887  0.25222025  0.55036579     0.10300
C331        C  0.02441642  0.28547837  0.53263666    -0.06800
C332        C  0.02237484  0.28647830  0.49510256    -0.18100
C333        C  0.50670034  0.25530193  0.47483025     0.10300
S334        S  0.00703189  0.24779581  0.59870657    -0.33000
S335        S  0.50864746  0.26017153  0.42652272    -0.33000
H336        H  0.51417837  0.23139766  0.41985941     0.28300
H337        H  0.00380621  0.27799549  0.60516392     0.28300
H338        H  0.98122862  0.19548144  0.54384752     0.18900
H339        H  0.03463637  0.31188100  0.48121653     0.18900
C340        C  0.46863816  0.42984966  0.49925807    -0.06900
C341        C  0.46806037  0.42271825  0.46220243    -0.18000
C342        C  0.44380683  0.38940321  0.44766243     0.10300
C343        C  0.42025764  0.36189182  0.47079573    -0.06800
C344        C  0.42304953  0.36831318  0.50813370    -0.18100
C345        C  0.44658500  0.40173952  0.52260859     0.10300
S346        S  0.44222880  0.38489921  0.39941729    -0.33000
S347        S  0.44618371  0.40587271  0.57086236    -0.33000
H348        H  0.46751928  0.44267068  0.57299741     0.28300
H349        H  0.40491794  0.36687258  0.39728230     0.28300
H350        H  0.48509305  0.44407165  0.44413085     0.18900
H351        H  0.40565417  0.34724327  0.52632018     0.18900
C352        C  0.05588731  0.08092398  0.52001972    -0.06900
C353        C  0.07866635  0.10425010  0.49375781    -0.18000
C354        C  0.10388877  0.13951837  0.50230917     0.10300
C355        C  0.10701433  0.15165766  0.53832815    -0.06800
C356        C  0.08207152  0.12927706  0.56371586    -0.18100
C357        C  0.05650756  0.09426023  0.55515136     0.10300
S358        S  0.13122121  0.16871369  0.46668100    -0.33000
S359        S  0.02795473  0.06835072  0.59187786    -0.33000
H360        H  0.50719136  0.03614034  0.57434525     0.28300
H361        H  0.11614672  0.14430157  0.43819083     0.28300
H362        H  0.07728624  0.09437241  0.46670060     0.18900
H363        H  0.08376877  0.13844816  0.59118730     0.18900
C364        C  0.29624680  0.27042311  0.48659274    -0.06900
C365        C  0.29778835  0.27422934  0.52412206    -0.18000
C366        C  0.26676899  0.25876038  0.54490097     0.10300
C367        C  0.23348244  0.23945367  0.52753521    -0.06800
C368        C  0.23213102  0.23537492  0.49007433    -0.18100
C369        C  0.26293587  0.25094910  0.46940760     0.10300
S370        S  0.27027139  0.26224310  0.59342229    -0.33000
S371        S  0.25757176  0.24642250  0.42119154    -0.33000
H372        H  0.28577481  0.28074170  0.41347945     0.28300
H373        H  0.30758324  0.28200889  0.59537656     0.28300
H374        H  0.32349097  0.28853373  0.53722421     0.18900
H375        H  0.20671925  0.22126406  0.47646813     0.18900
C376        C  0.15485228  0.05567297  0.46857371    -0.06900
C377        C  0.15049339  0.05937186  0.50555727    -0.18000
C378        C  0.11716720  0.04953164  0.52052492     0.10300
C379        C  0.08691790  0.03532581  0.49799804    -0.06800
C380        C  0.09152693  0.03297902  0.46076069    -0.18100
C381        C  0.12484535  0.04247486  0.44593450     0.10300
S382        S  0.11573588  0.05476307  0.56850135    -0.33000
S383        S  0.12671156  0.03459255  0.39857231    -0.33000
H384        H  0.15143742  0.02282314  0.40164214     0.28300
H385        H  0.08081938  0.04786553  0.57077551     0.28300
H386        H  0.17331999  0.06906667  0.52327920     0.18900
H387        H  0.06848193  0.02208808  0.44320798     0.18900
C388        C  0.43653706  0.47477163  0.51854628    -0.06900
C389        C  0.42793236  0.97541337  0.55489528    -0.18000
C390        C  0.39341426  0.46577566  0.56562888     0.10300
C391        C  0.36627447  0.45439044  0.53959985    -0.06800
C392        C  0.37467963  0.45299342  0.50321851    -0.18100
C393        C  0.40954314  0.46319511  0.49243277     0.10300
S394        S  0.38657794  0.97170385  0.61238456    -0.33000
S395        S  0.41964220  0.46295291  0.44539584    -0.33000
H396        H  0.38462152  0.44835603  0.43262683     0.28300
H397        H  0.36497715  0.98672402  0.60568556     0.28300
H398        H  0.44870366  0.98519544  0.57499121     0.18900
H399        H  0.35400013  0.44477251  0.48316804     0.18900
C400        C  0.24597832  0.02247476  0.48424251    -0.06900
C401        C  0.26228640  0.00755777  0.46350098    -0.18000
C402        C  0.27442739  0.48639984  0.47922108     0.10300
C403        C  0.27078969  0.48052842  0.51670407    -0.06800
C404        C  0.25452143  0.49551311  0.53738665    -0.18100
C405        C  0.24262670  0.01682501  0.52174157     0.10300
S406        S  0.29265744  0.46648088  0.44981167    -0.33000
S407        S  0.22570669  0.03779510  0.55143906    -0.33000
H408        H  0.24119337  0.07027142  0.53266961     0.28300
H409        H  0.27856376  0.43428286  0.46892243     0.28300
H410        H  0.26478495  0.01168483  0.43459759     0.18900
H411        H  0.25223561  0.49168608  0.56632264     0.18900
C412        C  0.32361510  0.38839763  0.13562589    -0.06900
C413        C  0.32006790  0.39693809  0.17131128    -0.18000
C414        C  0.28671594  0.38843168  0.18561069     0.10300
C415        C  0.25617347  0.37082932  0.16376089    -0.06800
C416        C  0.26015281  0.36413245  0.12752621    -0.18100
C417        C  0.29320980  0.37196780  0.11349868     0.10300
S418        S  0.28347405  0.39891344  0.23187221    -0.33000
S419        S  0.29427925  0.35787497  0.06808762    -0.33000
H420        H  0.31986543  0.34769682  0.07438027     0.28300
H421        H  0.32018297  0.41828295  0.23889680     0.28300
H422        H  0.34341613  0.40917769  0.18834361     0.18900
H423        H  0.23679047  0.35065854  0.11056255     0.18900
C424        C  0.03229031  0.27921142  0.20193108    -0.06900
C425        C  0.05626024  0.28864621  0.23054161    -0.18000
C426        C  0.09258011  0.30254492  0.22454452     0.10300
C427        C  0.10546788  0.30585822  0.18886460    -0.06800
C428        C  0.08134996  0.29503333  0.16018795    -0.18100
C429        C  0.04505032  0.28205220  0.16624280     0.10300
S430        S  0.12054176  0.31788840  0.26400264    -0.33000
S431        S  0.01678121  0.27049243  0.12714695    -0.33000
H432        H  0.48523600  0.24592900  0.14456251     0.28300
H433        H  0.15222631  0.32385057  0.24830207     0.28300
H434        H  0.04698944  0.28754373  0.25785372     0.18900
H435        H  0.09103943  0.29760976  0.13284945     0.18900
C436        C  0.41231225  0.35020231  0.14694622    -0.06900
C437        C  0.44930499  0.36490355  0.15038043    -0.18000
C438        C  0.46387033  0.34643685  0.16720478     0.10300
C439        C  0.44104193  0.31204215  0.18082849    -0.06800
C440        C  0.40408484  0.29698391  0.17675604    -0.18100
C441        C  0.38952274  0.31534015  0.15950642     0.10300
S442        S  0.01154319  0.36929789  0.17207249    -0.33000
S443        S  0.34205225  0.29201769  0.15293902    -0.33000
H444        H  0.34370727  0.30481944  0.11778556     0.28300
H445        H  0.01078180  0.35951089  0.20829705     0.28300
H446        H  0.46721205  0.39161213  0.14089002     0.18900
H447        H  0.38634071  0.27032784  0.18650876     0.18900
C448        C  0.22366670  0.41529392  0.18565205    -0.06900
C449        C  0.24313794  0.43882578  0.15794457    -0.18000
C450        C  0.26563726  0.47510214  0.16495220     0.10300
C451        C  0.26994955  0.48810313  0.20075648    -0.06800
C452        C  0.24835694  0.46497697  0.22782812    -0.18100
C453        C  0.22520706  0.42885746  0.22064295     0.10300
S454        S  0.28792414  0.00342133  0.12699152    -0.33000
S455        S  0.20033382  0.39974653  0.25724742    -0.33000
H456        H  0.20860627  0.42633036  0.28322254     0.28300
H457        H  0.28989954  0.03406929  0.14214764     0.28300
H458        H  0.24109988  0.42880076  0.13081354     0.18900
H459        H  0.25151155  0.47463900  0.25521194     0.18900
C460        C  0.08937141  0.19469412  0.14141890    -0.06900
C461        C  0.09381272  0.20115926  0.17868340    -0.18000
C462        C  0.11811690  0.23465802  0.19267159     0.10300
C463        C  0.13877988  0.26306094  0.16892738    -0.06800
C464        C  0.13566223  0.25612780  0.13168447    -0.18100
C465        C  0.11108914  0.22261505  0.11771535     0.10300
S466        S  0.12013868  0.23889794  0.24088058    -0.33000
S467        S  0.10650318  0.21828368  0.06953437    -0.33000
H468        H  0.06913238  0.19883248  0.06977718     0.28300
H469        H  0.15283005  0.27018829  0.24199544     0.28300
H470        H  0.07738862  0.17995829  0.19723841     0.18900
H471        H  0.15114408  0.27771762  0.11314502     0.18900
C472        C  0.46338796  0.10445839  0.15385321    -0.06900
C473        C  0.44085621  0.06740358  0.15653381    -0.18000
C474        C  0.40787653  0.05274660  0.17356712     0.10300
C475        C  0.39664617  0.07558438  0.18792151    -0.06800
C476        C  0.41901487  0.11257561  0.18507458    -0.18100
C477        C  0.45188842  0.12722874  0.16791804     0.10300
S478        S  0.38254210  0.00496572  0.17760800    -0.33000
S479        S  0.47666889  0.17493215  0.16345519    -0.33000
H480        H  0.48629019  0.17443140  0.12737859     0.28300
H481        H  0.37164534  0.00508993  0.21324589     0.28300
H482        H  0.44936569  0.04954234  0.14612265     0.18900
H483        H  0.41042551  0.13036592  0.19553514     0.18900
C484        C  0.21566068  0.29667444  0.18775077    -0.06900
C485        C  0.22191990  0.28025314  0.15847635    -0.18000
C486        C  0.23609665  0.25776487  0.16344054     0.10300
C487        C  0.24296723  0.25035800  0.19868996    -0.06800
C488        C  0.23908282  0.26882146  0.22765921    -0.18100
C489        C  0.22597030  0.29212222  0.22270009     0.10300
S490        S  0.24625963  0.23970835  0.12445079    -0.33000
S491        S  0.22208354  0.31348591  0.26286149    -0.33000
H492        H  0.21149251  0.33584591  0.24698446     0.28300
H493        H  0.23890991  0.25861354  0.09835037     0.28300
H494        H  0.21525227  0.28482734  0.13167666     0.18900
H495        H  0.24474547  0.26384225  0.25476457     0.18900
C496        C  0.12640566  0.42906947  0.14231924    -0.06900
C497        C  0.13935240  0.41426149  0.11720908    -0.18000
C498        C  0.15010580  0.39010431  0.12781417     0.10300
C499        C  0.14840913  0.38068241  0.16456275    -0.06800
C500        C  0.13350649  0.39382096  0.18935725    -0.18100
C501        C  0.12224234  0.41760609  0.17859377     0.10300
S502        S  0.16782044  0.37395118  0.09339212    -0.33000
S503        S  0.10307608  0.43257174  0.21252349    -0.33000
H504        H  0.08322877  0.44102181  0.18872652     0.28300
H505        H  0.15718026  0.34080001  0.10927298     0.28300
H506        H  0.14274502  0.42288349  0.08938419     0.18900
H507        H  0.13147386  0.38623304  0.21740992     0.18900
C508        C  0.16699523  0.05653315  0.15277179    -0.06900
C509        C  0.18614466  0.08554216  0.12957169    -0.18000
C510        C  0.20790918  0.11981868  0.14303776     0.10300
C511        C  0.20972761  0.12540095  0.18053474    -0.06800
C512        C  0.19049572  0.09633117  0.20361632    -0.18100
C513        C  0.16893378  0.06215591  0.19019323     0.10300
S514        S  0.23393619  0.15444292  0.11116012    -0.33000
S515        S  0.14305344  0.02750392  0.22208461    -0.33000
H516        H  0.11245033  0.01067515  0.20041952     0.28300
H517        H  0.26336275  0.17353212  0.13391707     0.28300
H518        H  0.18470325  0.08129522  0.10071655     0.18900
H519        H  0.19162687  0.10042812  0.23249296     0.18900
C520        C  0.12329921  0.96020110  0.13125180     0.79400
N521        N  0.14474833  0.99211021  0.14731124    -0.78900
C522        C  0.14384295  0.52154598  0.13670072     0.81900
N523        N  0.12132958  0.51900595  0.11046460    -0.78800
C524        C  0.09986994  0.98769764  0.09418398     0.82000
N525        N  0.10085433  0.95795021  0.10420281    -0.80500
C526        C  0.24932475  0.72043919  0.20656827     0.79400
N527        N  0.26935953  0.72158140  0.23560919    -0.78900
C528        C  0.27047186  0.69184746  0.24519508     0.81900
N529        N  0.25174805  0.66167350  0.22607829    -0.78800
C530        C  0.23215074  0.66019394  0.19743922     0.82000
N531        N  0.23053994  0.68947339  0.18787418    -0.80500
C532        C  0.05888243  0.66028336  0.12918025     0.79400
N533        N  0.02710288  0.64864375  0.14587265    -0.78900
C534        C  0.49811823  0.61770777  0.13604629     0.81900
N535        N  0.50132524  0.59770906  0.11022462    -0.78800
C536        C  0.03252204  0.60836520  0.09331616     0.82000
N537        N  0.06176807  0.63996161  0.10255812    -0.80500
C538        C  0.30085066  0.52272479  0.21159771     0.79400
N539        N  0.29928909  0.54199192  0.24013688    -0.78900
C540        C  0.32959959  0.57155017  0.25141434     0.81900
N541        N  0.36058370  0.58126162  0.23436558    -0.78800
C542        C  0.36238471  0.56255820  0.20637266     0.82000
N543        N  0.33249056  0.53333295  0.19504059    -0.80500
C544        C  0.99642407  0.77338722  0.21006531     0.79400
N545        N  0.48468871  0.79229506  0.19117735    -0.78900
C546        C  0.45418067  0.79146179  0.20051508     0.81000
N547        N  0.43538347  0.77154857  0.22882656    -0.78800
C548        C  0.44636183  0.75240614  0.24811801     0.82000
N549        N  0.47722069  0.75333482  0.23892952    -0.80500
C550        C  0.35794846  0.89210913  0.12430419     0.79400
N551        N  0.36850436  0.87059182  0.13997400    -0.78900
C552        C  0.39938516  0.87236929  0.13001087     0.81900
N553        N  0.42013503  0.89658798  0.10530549    -0.78800
C554        C  0.41041716  0.91837466  0.08958688     0.82000
N555        N  0.37895245  0.91622213  0.09874504    -0.80500
C556        C  0.14407699  0.82234031  0.18109075     0.01500
C557        C  0.16492656  0.85966391  0.17727878     0.01500
C558        C  0.20238467  0.87636456  0.17851372     0.01500
C559        C  0.21905193  0.85550322  0.17764458     0.01500
C560        C  0.19807409  0.81804774  0.18114435     0.01500
C561        C  0.16045986  0.80117209  0.18037505     0.01500
O562        O  0.38330908  0.66334020  0.41140331    -0.79300
C563        C  0.36406686  0.75014170  0.39738135     0.81800
O564        O  0.26184655  0.60965587  0.36289737    -0.80400
O565        O  0.31765270  0.71767305  0.28846458    -0.81900
O566        O  0.42305899  0.70329124  0.28951534    -0.81700
O567        O  0.41089341  0.65316273  0.36633407    -0.80300
Zn568      Zn  0.34582013  0.67230405  0.39107906     1.55700
O569        O  0.40075548  0.73975281  0.28867466    -0.81700
Cd570      Cd  0.38569743  0.66271685  0.32317928     1.59700
Cd571      Cd  0.29938143  0.63441919  0.32164947     1.59600
O572        O  0.36188717  0.61862966  0.29084715    -0.81700
O573        O  0.34720140  0.67248164  0.33971447    -1.92200
Cd574      Cd  0.35780289  0.72074643  0.32208009     1.59900
O575        O  0.30307088  0.59601213  0.29040321    -0.81600
O576        O  0.36854236  0.75703381  0.36384202    -0.80300
C577        C  0.26784193  0.61247719  0.39666507     0.82200
C578        C  0.40645883  0.65596672  0.39985551     0.81900
O579        O  0.35492336  0.71938750  0.40966626    -0.79300
C580        C  0.42301238  0.73088151  0.27772767     0.82700
O581        O  0.29825982  0.63444335  0.40946069    -0.79400
C582        C  0.33091885  0.59582872  0.27982817     0.82800
C583        C  0.29100678  0.68993610  0.27561620     0.83200
O584        O  0.28224821  0.65873212  0.28635011    -0.81800
C585        C  0.33027521  0.94790885  0.54847702     0.79400
N586        N  0.31085927  0.92658924  0.57654152    -0.78900
C587        C  0.27804422  0.92209053  0.58368228     0.81900
N588        N  0.26516568  0.93875870  0.56317766    -0.78800
C589        C  0.28432927  0.96011406  0.53577239     0.82000
N590        N  0.31685731  0.96463512  0.52844232    -0.80500
C591        C  0.18936280  0.55989043  0.45662180     0.79400
N592        N  0.20982933  0.58313237  0.43007409    -0.78900
C593        C  0.24202365  0.58625501  0.42184689     0.81900
N594        N  0.25314698  0.56659156  0.43985652    -0.78800
C595        C  0.23303226  0.54366300  0.46576984     0.82000
N596        N  0.20125318  0.54041339  0.47411742    -0.80500
C597        C  0.13812235  0.68542042  0.55088234     0.79400
N598        N  0.17033357  0.69596617  0.53579471    -0.78900
C599        C  0.19966846  0.72593492  0.54694622     0.81900
N600        N  0.19666879  0.74574480  0.57315459    -0.78800
C601        C  0.16515535  0.73542916  0.58932571     0.82000
N602        N  0.13549688  0.70516162  0.57822924    -0.80500
C603        C  0.38973683  0.82784147  0.45803252     0.79400
N604        N  0.35828103  0.81578129  0.47546623    -0.78900
C605        C  0.32967997  0.78427786  0.46660991     0.81900
N606        N  0.33274357  0.76416569  0.44088596    -0.78800
C607        C  0.36347980  0.77555193  0.42278908     0.82000
N608        N  0.39251616  0.80758023  0.43129105    -0.80500
C609        C  0.06757628  0.88082345  0.55741569     0.79400
N610        N  0.09004486  0.88268183  0.58424938    -0.78900
C611        C  0.09065493  0.85267244  0.59402762     0.81900
N612        N  0.06899306  0.82153078  0.57736357    -0.78800
C613        C  0.04597517  0.81929558  0.55174706     0.82000
N614        N  0.04571673  0.84908361  0.54144363    -0.80500
C615        C  0.45563570  0.62857556  0.46234991     0.79400
N616        N  0.43437409  0.62695090  0.43434534    -0.78900
C617        C  0.43133897  0.65603665  0.42646612     0.81900
N618        N  0.44963464  0.68608285  0.44593872    -0.78800
C619        C  0.47169551  0.68834540  0.47260466     0.82000
N620        N  0.47420455  0.65934843  0.48125207    -0.80500
C621        C  0.47478095  0.98964641  0.50936557     0.01500
C622        C  0.49030116  0.96770492  0.51076493     0.01500
C623        C  0.02763988  0.98337060  0.51407569     0.01500
C624        C  0.04963500  0.52067803  0.51116488     0.01500
C625        C  0.03391723  0.54245645  0.51106053     0.01500
C626        C  0.99678688  0.52692877  0.50673211     0.01500
C627        C  0.29026413  0.79354340  0.79617866     0.79400
N628        N  0.26780914  0.79177361  0.76929410    -0.78900
C629        C  0.26745900  0.82190347  0.75939772     0.81900
N630        N  0.28865944  0.85277251  0.77677931    -0.78800
C631        C  0.31014096  0.85458115  0.80385338     0.82000
N632        N  0.31116091  0.82499401  0.81315295    -0.80500
C633        C  0.41029990  0.55098774  0.88271114     0.79400
N634        N  0.39102229  0.51976010  0.86465989    -0.78900
C635        C  0.39372717  0.99090344  0.87307859     0.81900
N636        N  0.41525777  0.99318077  0.90018656    -0.78800
C637        C  0.43481318  0.52372535  0.91864926     0.82000
N638        N  0.43276003  0.55321035  0.90983227    -0.80500
C639        C  0.22868481  0.98691766  0.80301919     0.79400
N640        N  0.23024101  0.96717948  0.77498369    -0.78900
C641        C  0.20102700  0.93529954  0.76682406     0.81900
N642        N  0.17116495  0.92351111  0.78671662    -0.78800
C643        C  0.16963195  0.94230921  0.81477070     0.82000
N644        N  0.19826810  0.97429338  0.82259009    -0.80500
C645        C  0.47163358  0.85125497  0.88612033     0.79400
N646        N  0.00290908  0.86243084  0.86848769    -0.78900
C647        C  0.03195068  0.89378010  0.87711864     0.81900
N648        N  0.02984449  0.91353851  0.90385406    -0.78800
C649        C  0.49911688  0.90339618  0.92164336     0.82000
N650        N  0.46945491  0.87198353  0.91279034    -0.80500
C651        C  0.16859028  0.61211680  0.88399601     0.79400
N652        N  0.14829299  0.58985915  0.91126285    -0.78900
C653        C  0.11693014  0.58817067  0.92020364     0.81900
N654        N  0.10628811  0.60804133  0.90181614    -0.78800
C655        C  0.12564100  0.62926123  0.87457270     0.82000
N656        N  0.15698839  0.63163254  0.86591766    -0.80500
C657        C  0.03324451  0.73448293  0.80277411     0.79400
N658        N  0.04453535  0.71465215  0.82073155    -0.78900
C659        C  0.07540301  0.71620705  0.81148639     0.81900
N660        N  0.09429341  0.73649257  0.78350037    -0.78800
C661        C  0.08354659  0.75614757  0.76491871     0.82000
N662        N  0.05283202  0.75537821  0.77450606    -0.80500
C663        C  0.31185112  0.65485618  0.83904181     0.01500
C664        C  0.33294647  0.69248552  0.83785741     0.01500
C665        C  0.37057434  0.70902058  0.83793856     0.01500
C666        C  0.38674754  0.68771970  0.83519474     0.01500
C667        C  0.36588400  0.65019045  0.83735157     0.01500
C668        C  0.32831534  0.63372394  0.83754179     0.01500
O669        O  0.05130419  0.49465978  0.08065687    -0.79300
C670        C  0.03300283  0.58286736  0.06783250     0.81800
O671        O  0.43132019  0.94205701  0.03146761    -0.80400
O672        O  0.48451776  0.55031534  0.95941854    -0.81900
O673        O  0.09259286  0.53746098  0.95974011    -0.81700
O674        O  0.07906533  0.98580067  0.03478679    -0.80300
Zn675      Zn  0.01441909  0.50489038  0.06071845     1.55700
O676        O  0.06936488  0.57313776  0.95896076    -0.81700
Cd677      Cd  0.05441385  0.49605299  0.99201520     1.59700
Cd678      Cd  0.46853346  0.96708638  0.99062060     1.59600
O679        O  0.03113727  0.95201242  0.95949463    -0.81700
O680        O  0.01585960  0.50546869  0.00914065    -1.92200
Cd681      Cd  0.02580622  0.55363570  0.99191711     1.59900
O682        O  0.47225875  0.92851204  0.95949920    -0.81600
O683        O  0.03666194  0.58955186  0.03421460    -0.80300
C684        C  0.43657048  0.94509060  0.06530252     0.82200
C685        C  0.07443594  0.98756105  0.06842024     0.81900
O686        O  0.02425035  0.55217961  0.08009403    -0.79300
C687        C  0.09246502  0.56515391  0.94847808     0.82700
O688        O  0.46655159  0.96730347  0.07877511    -0.79400
C689        C  0.00022976  0.92854341  0.94898677     0.82800
C690        C  0.45762164  0.52238612  0.94711527     0.83200
O691        O  0.45009816  0.99127882  0.95693862    -0.81800
O692        O  0.17002640  0.79018268  0.60233997    -0.79300
C693        C  0.11738214  0.85300458  0.61823505     0.81800
O694        O  0.26288650  0.90184541  0.64432669    -0.80400
O695        O  0.16786578  0.88944097  0.72667462    -0.81900
O696        O  0.13014556  0.77042419  0.72498239    -0.81700
O697        O  0.16285771  0.75465415  0.64864392    -0.80300
Zn698      Zn  0.17803566  0.83652336  0.62192980     1.55700
O699        O  0.10647556  0.80576254  0.72466137    -0.81700
Cd700      Cd  0.17290557  0.79034976  0.69085845     1.59700
Cd701      Cd  0.22978273  0.87667632  0.68870945     1.59600
O702        O  0.21528860  0.79504769  0.72222130    -0.81700
O703        O  0.18117991  0.83773784  0.67329638    -1.92200
Cd704      Cd  0.14338116  0.84728434  0.69232870     1.59900
O705        O  0.25178459  0.85378644  0.72018683    -0.81600
O706        O  0.11663119  0.85821067  0.65189184    -0.80300
C707        C  0.25413105  0.89773704  0.61114855     0.82200
C708        C  0.16424835  0.76053078  0.61490828     0.81900
O709        O  0.13851381  0.84381996  0.60479430    -0.79300
C710        C  0.10720745  0.77843069  0.73597508     0.82700
O711        O  0.22311993  0.87481195  0.60067973    -0.79400
C712        C  0.24374300  0.82300294  0.73174229     0.82800
C713        C  0.19911255  0.91235990  0.73672859     0.83200
O714        O  0.22679844  0.91363087  0.72332809    -0.81800
C715        C  0.42526827  0.70446308  0.82663457    -0.06900
C716        C  0.44949501  0.71246689  0.85485027    -0.18000
C717        C  0.48558914  0.72519854  0.84800236     0.10300
C718        C  0.49798297  0.72985392  0.81202504    -0.06800
C719        C  0.47417169  0.72406034  0.78399123    -0.18100
C720        C  0.43804408  0.71110860  0.79067260     0.10300
S721        S  0.51440862  0.73487278  0.88637236    -0.33000
S722        S  0.41034390  0.70207961  0.75131011    -0.33000
H723        H  0.37699221  0.68675126  0.76796069     0.28300
H724        H  0.04488588  0.76201829  0.86941225     0.28300
H725        H  0.44006822  0.70811425  0.88241348     0.18900
H726        H  0.48330934  0.72736287  0.75635754     0.18900
C727        C  0.20368726  0.61680051  0.87360971    -0.06900
C728        C  0.21116588  0.61730691  0.83669074    -0.18000
C729        C  0.24549983  0.62785221  0.82415401     0.10300
C730        C  0.27351173  0.63832789  0.84920945    -0.06800
C731        C  0.26555624  0.63579038  0.88616442    -0.18100
C732        C  0.23134097  0.62574947  0.89859512     0.10300
S733        S  0.25093065  0.62773607  0.77600649    -0.33000
S734        S  0.22562127  0.62806245  0.94635109    -0.33000
H735        H  0.20510739  0.64476452  0.94331686     0.28300
H736        H  0.28759691  0.64111602  0.77515400     0.28300
H737        H  0.19011711  0.61045834  0.81723016     0.18900
H738        H  0.28671776  0.64344871  0.90562702     0.18900
C739        C  0.08802360  0.69489540  0.83008435    -0.06900
C740        C  0.06480734  0.65828573  0.83338038    -0.18000
C741        C  0.07697660  0.63594169  0.84578821     0.10300
C742        C  0.11295434  0.65065391  0.85613388    -0.06800
C743        C  0.13616229  0.68728623  0.85284087    -0.18100
C744        C  0.12402385  0.70960955  0.84027683     0.10300
S745        S  0.04573266  0.58878331  0.84607268    -0.33000
S746        S  0.15541378  0.75673206  0.83921583    -0.33000
H747        H  0.13033615  0.76745928  0.84631817     0.28300
H748        H  0.07099887  0.57839956  0.83856707     0.28300
H749        H  0.03742634  0.64682140  0.82466628     0.18900
H750        H  0.16356623  0.69876975  0.86149160     0.18900
C751        C  0.44115305  0.81630575  0.87568287    -0.06900
C752        C  0.43191528  0.81045812  0.83909144    -0.18000
C753        C  0.40800574  0.77652785  0.82566965     0.10300
C754        C  0.39291531  0.74705693  0.84942739    -0.06800
C755        C  0.40146758  0.75322507  0.88626224    -0.18100
C756        C  0.42520082  0.78724757  0.89959520     0.10300
S757        S  0.39980130  0.77374827  0.77794470    -0.33000
S758        S  0.43571259  0.79126606  0.94689089    -0.33000
H759        H  0.47219719  0.81549857  0.94275709     0.28300
H760        H  0.37474948  0.73775712  0.77645127     0.28300
H761        H  0.44438379  0.83258002  0.82046889     0.18900
H762        H  0.39052637  0.73092339  0.90471619     0.18900
C763        C  0.25812658  0.52329160  0.81108327    -0.06900
C764        C  0.26667067  0.53352644  0.84737250    -0.18000
C765        C  0.29057288  0.56903094  0.85698818     0.10300
C766        C  0.30615363  0.59491718  0.82981554    -0.06800
C767        C  0.29873755  0.58436472  0.79366923    -0.18100
C768        C  0.27476261  0.54924739  0.78401449     0.10300
S769        S  0.30040867  0.58122954  0.90374372    -0.33000
S770        S  0.26414858  0.54029296  0.73691730    -0.33000
H771        H  0.22717404  0.52049637  0.74235444     0.28300
H772        H  0.27882698  0.54699113  0.91800962     0.28300
H773        H  0.25385688  0.51373038  0.86822972     0.18900
H774        H  0.31039385  0.60404151  0.77257922     0.18900
C775        C  0.06628414  0.90610788  0.85909252    -0.06900
C776        C  0.07834111  0.88192717  0.85402797    -0.18000
C777        C  0.11271671  0.89329652  0.84153658     0.10300
C778        C  0.13549199  0.92966637  0.83332116    -0.06800
C779        C  0.12337342  0.95379103  0.83835902    -0.18100
C780        C  0.08893705  0.94238616  0.85049303     0.10300
S781        S  0.12625232  0.86029731  0.83805222    -0.33000
S782        S  0.07495980  0.97513943  0.85238044    -0.33000
H783        H  0.03940555  0.95147108  0.84287547     0.28300
H784        H  0.16216569  0.88366088  0.84646206     0.28300
H785        H  0.06134496  0.85418787  0.86116779     0.18900
H786        H  0.14025019  0.98150318  0.83104141     0.18900
C787        C  0.38299010  0.62875340  0.84709136    -0.06900
C788        C  0.38995539  0.62693593  0.88380455    -0.18000
C789        C  0.40073472  0.60331969  0.89646727     0.10300
C790        C  0.40562683  0.58136246  0.87181064    -0.06800
C791        C  0.40143380  0.58536035  0.83489097    -0.18100
C792        C  0.39021391  0.60850028  0.82222507     0.10300
S793        S  0.40491935  0.60056569  0.94440288    -0.33000
S794        S  0.38575015  0.60991784  0.77414553    -0.33000
H795        H  0.37055724  0.63147902  0.77373909     0.28300
H796        H  0.38560460  0.56319053  0.94545211     0.28300
H797        H  0.38496547  0.64267977  0.90307641     0.18900
H798        H  0.40587415  0.56928574  0.81556009     0.18900
C799        C  0.29406012  0.76266252  0.80691152    -0.06900
C800        C  0.29927122  0.75854041  0.84365025    -0.18000
C801        C  0.31006588  0.73466181  0.85531531     0.10300
C802        C  0.31590252  0.71417764  0.82958574    -0.06800
C803        C  0.30806403  0.71639285  0.79330323    -0.18100
C804        C  0.29773659  0.74049249  0.78162557     0.10300
S805        S  0.31645469  0.73270655  0.90308692    -0.33000
S806        S  0.29354830  0.74415125  0.73381339    -0.33000
H807        H  0.31485877  0.78142436  0.73324995     0.28300
H808        H  0.32516521  0.70573034  0.90284387     0.28300
H809        H  0.29605572  0.77504380  0.86347368     0.18900
H810        H  0.31281495  0.70118797  0.77323408     0.18900
C811        C  0.33219735  0.88895496  0.82221040    -0.06900
C812        C  0.34396782  0.92023897  0.80195893    -0.18000
C813        C  0.36448131  0.95380887  0.81738052     0.10300
C814        C  0.37286167  0.95654380  0.85435607    -0.06800
C815        C  0.36148228  0.92527903  0.87451037    -0.18100
C816        C  0.34113787  0.89170920  0.85908433     0.10300
S817        S  0.38064491  0.99168259  0.78785077    -0.33000
S818        S  0.32600699  0.85393105  0.88861293    -0.33000
H819        H  0.29094174  0.83667627  0.87545597     0.28300
H820        H  0.41486372  0.50967569  0.80309961     0.28300
H821        H  0.33783847  0.91858755  0.77349458     0.18900
H822        H  0.36763400  0.92693565  0.90296873     0.18900
C823        C  0.45961620  0.59775978  0.47251685    -0.06900
C824        C  0.97446777  0.58473898  0.44752929    -0.18000
C825        C  0.98557000  0.56075346  0.45786254     0.10300
C826        C  0.48186803  0.54940703  0.49416773    -0.06800
C827        C  0.46544167  0.56110531  0.51877918    -0.18100
C828        C  0.45411793  0.58488783  0.50830830     0.10300
S829        S  0.00609569  0.54737834  0.42362845    -0.33000
S830        S  0.43316171  0.59817592  0.54199283    -0.33000
H831        H  0.41233601  0.60493023  0.51779629     0.28300
H832        H  0.99973191  0.51538308  0.43943955     0.28300
H833        H  0.97904019  0.59463050  0.42016377     0.18900
H834        H  0.46202667  0.55224819  0.54642455     0.18900
C835        C  0.06524883  0.91227273  0.54589757    -0.06900
C836        C  0.05860027  0.93137648  0.57203338    -0.18000
C837        C  0.04742775  0.95545729  0.56250532     0.10300
C838        C  0.04311707  0.96107981  0.52557958    -0.06800
C839        C  0.05218326  0.94377819  0.49936666    -0.18100
C840        C  0.06346273  0.91977338  0.50909022     0.10300
S841        S  0.03780399  0.97624468  0.59960744    -0.33000
S842        S  0.07515983  0.89948781  0.47327308    -0.33000
H843        H  0.09933906  0.89409903  0.49368566     0.28300
H844        H  0.02389308  0.99397953  0.58020231     0.28300
H845        H  0.05991432  0.92582447  0.60025380     0.18900
H846        H  0.04980707  0.94850830  0.47113292     0.18900
C847        C  0.49172422  0.72199278  0.49246009    -0.06900
C848        C  0.99340778  0.72093119  0.53006586    -0.18000
C849        C  0.00908895  0.75222024  0.55036564     0.10300
C850        C  0.02441694  0.78547821  0.53263637    -0.06800
C851        C  0.02237581  0.78647846  0.49510201    -0.18100
C852        C  0.50670087  0.75530171  0.47482995     0.10300
S853        S  0.00703175  0.74779607  0.59870652    -0.33000
S854        S  0.50864797  0.76017097  0.42652241    -0.33000
H855        H  0.51417830  0.73139668  0.41985931     0.28300
H856        H  0.00380634  0.77799598  0.60516350     0.28300
H857        H  0.98122826  0.69548207  0.54384736     0.18900
H858        H  0.03463641  0.81187856  0.48121727     0.18900
C859        C  0.46863884  0.92985009  0.49925793    -0.06900
C860        C  0.46806045  0.92271879  0.46220228    -0.18000
C861        C  0.44380692  0.88940396  0.44766204     0.10300
C862        C  0.42025805  0.86189221  0.47079548    -0.06800
C863        C  0.42305123  0.86831416  0.50813282    -0.18100
C864        C  0.44658615  0.90173970  0.52260854     0.10300
S865        S  0.44222807  0.88490024  0.39941709    -0.33000
S866        S  0.44618553  0.90587240  0.57086242    -0.33000
H867        H  0.46751939  0.94267051  0.57299743     0.28300
H868        H  0.40491717  0.86687307  0.39728264     0.28300
H869        H  0.48509219  0.94407173  0.44413121     0.18900
H870        H  0.40565142  0.84723836  0.52632428     0.18900
C871        C  0.05588721  0.58092373  0.52001945    -0.06900
C872        C  0.07866638  0.60425054  0.49375905    -0.18000
C873        C  0.10388896  0.63951835  0.50230901     0.10300
C874        C  0.10701427  0.65165769  0.53832799    -0.06800
C875        C  0.08207151  0.62927702  0.56371583    -0.18100
C876        C  0.05650766  0.59426006  0.55515132     0.10300
S877        S  0.13122132  0.66871372  0.46668061    -0.33000
S878        S  0.02795558  0.56835023  0.59187766    -0.33000
H879        H  0.50719073  0.53614044  0.57434485     0.28300
H880        H  0.11615855  0.64429650  0.43819269     0.28300
H881        H  0.07728543  0.59436887  0.46668981     0.18900
H882        H  0.08376850  0.63844668  0.59118313     0.18900
C883        C  0.29624674  0.77042379  0.48659248    -0.06900
C884        C  0.29778906  0.77423067  0.52412220    -0.18000
C885        C  0.26676891  0.75876099  0.54490056     0.10300
C886        C  0.23348250  0.73945396  0.52753478    -0.06800
C887        C  0.23213077  0.73537483  0.49007375    -0.18100
C888        C  0.26293601  0.75094949  0.46940736     0.10300
S889        S  0.27027104  0.76224386  0.59342191    -0.33000
S890        S  0.25757193  0.74642289  0.42119115    -0.33000
H891        H  0.28577480  0.78074224  0.41347914     0.28300
H892        H  0.30758292  0.78200551  0.59537652     0.28300
H893        H  0.32348661  0.78853277  0.53722174     0.18900
H894        H  0.20672036  0.72126442  0.47646824     0.18900
C895        C  0.15485152  0.55567221  0.46857266    -0.06900
C896        C  0.15049299  0.55937155  0.50555622    -0.18000
C897        C  0.11716680  0.54953129  0.52052399     0.10300
C898        C  0.08691741  0.53532519  0.49799738    -0.06800
C899        C  0.09152534  0.53297749  0.46075952    -0.18100
C900        C  0.12484437  0.54247355  0.44593378     0.10300
S901        S  0.11573608  0.55476321  0.56850060    -0.33000
S902        S  0.12671027  0.53459046  0.39857176    -0.33000
H903        H  0.15143699  0.52282210  0.40164160     0.28300
H904        H  0.08081942  0.54786505  0.57077502     0.28300
H905        H  0.17332090  0.56906712  0.52327884     0.18900
H906        H  0.06848590  0.52208887  0.44321135     0.18900
C907        C  0.43653744  0.97477167  0.51854604    -0.06900
C908        C  0.42793240  0.47541371  0.55489570    -0.18000
C909        C  0.39341436  0.96577527  0.56562852     0.10300
C910        C  0.36627465  0.95439003  0.53959936    -0.06800
C911        C  0.37468014  0.95299338  0.50321811    -0.18100
C912        C  0.40954363  0.96319527  0.49243235     0.10300
S913        S  0.38657800  0.47170427  0.61238499    -0.33000
S914        S  0.41964311  0.96295380  0.44539551    -0.33000
H915        H  0.38462225  0.94835538  0.43262653     0.28300
H916        H  0.36497688  0.48672411  0.60568620     0.28300
H917        H  0.44870234  0.48519506  0.57499005     0.18900
H918        H  0.35400035  0.94477245  0.48316723     0.18900
C919        C  0.24597827  0.52247493  0.48424162    -0.06900
C920        C  0.26228625  0.50755780  0.46349942    -0.18000
C921        C  0.27442755  0.98639973  0.47922161     0.10300
C922        C  0.27078977  0.98052802  0.51670456    -0.06800
C923        C  0.25452118  0.99551230  0.53738733    -0.18100
C924        C  0.24262710  0.51682583  0.52174065     0.10300
S925        S  0.29265760  0.96648097  0.44981181    -0.33000
S926        S  0.22570802  0.53779703  0.55143814    -0.33000
H927        H  0.24119449  0.57027282  0.53266778     0.28300
H928        H  0.27856360  0.93428274  0.46892215     0.28300
H929        H  0.26478413  0.51168365  0.43460219     0.18900
H930        H  0.25223535  0.99168523  0.56632107     0.18900
C931        C  0.32361493  0.88839758  0.13562556    -0.06900
C932        C  0.32006767  0.89693838  0.17131068    -0.18000
C933        C  0.28671589  0.88843207  0.18561024     0.10300
C934        C  0.25617337  0.87082933  0.16376061    -0.06800
C935        C  0.26015234  0.86413195  0.12752585    -0.18100
C936        C  0.29320953  0.87196743  0.11349847     0.10300
S937        S  0.28347428  0.89891436  0.23187173    -0.33000
S938        S  0.29427888  0.85787429  0.06808758    -0.33000
H939        H  0.31986589  0.84769717  0.07437992     0.28300
H940        H  0.32018333  0.91828580  0.23889545     0.28300
H941        H  0.34341794  0.90917921  0.18834445     0.18900
H942        H  0.23679237  0.85065915  0.11056406     0.18900
C943        C  0.03229054  0.77921186  0.20193146    -0.06900
C944        C  0.05626067  0.78864668  0.23054154    -0.18000
C945        C  0.09258043  0.80254527  0.22454469     0.10300
C946        C  0.10546808  0.80585847  0.18886465    -0.06800
C947        C  0.08134996  0.79503355  0.16018828    -0.18100
C948        C  0.04505039  0.78205247  0.16624308     0.10300
S949        S  0.12054221  0.81788873  0.26400268    -0.33000
S950        S  0.01678107  0.77049243  0.12714744    -0.33000
H951        H  0.48523608  0.74592942  0.14456304     0.28300
H952        H  0.15222655  0.82385049  0.24830199     0.28300
H953        H  0.04698915  0.78754420  0.25785581     0.18900
H954        H  0.09103952  0.79760999  0.13284888     0.18900
C955        C  0.41231244  0.85020276  0.14694668    -0.06900
C956        C  0.44930447  0.86490281  0.15038100    -0.18000
C957        C  0.46387074  0.84643737  0.16720506     0.10300
C958        C  0.44104234  0.81204281  0.18082934    -0.06800
C959        C  0.40408526  0.79698469  0.17675722    -0.18100
C960        C  0.38952289  0.81534059  0.15950750     0.10300
S961        S  0.01154346  0.86929839  0.17207203    -0.33000
S962        S  0.34205261  0.79201827  0.15294059    -0.33000
H963        H  0.34370716  0.80481934  0.11778691     0.28300
H964        H  0.01078249  0.85951170  0.20829664     0.28300
H965        H  0.46721704  0.89161950  0.14088722     0.18900
H966        H  0.38634220  0.77033025  0.18650974     0.18900
C967        C  0.22366673  0.91529392  0.18565180    -0.06900
C968        C  0.24313851  0.93882615  0.15794543    -0.18000
C969        C  0.26563783  0.97510224  0.16495206     0.10300
C970        C  0.26994982  0.98810331  0.20075660    -0.06800
C971        C  0.24835660  0.96497674  0.22782687    -0.18100
C972        C  0.22520670  0.92885756  0.22064277     0.10300
S973        S  0.28792318  0.50342137  0.12699136    -0.33000
S974        S  0.20033319  0.89974684  0.25724706    -0.33000
H975        H  0.20860239  0.92633130  0.28322077     0.28300
H976        H  0.28989850  0.53406924  0.14214774     0.28300
H977        H  0.24110027  0.92879918  0.13080925     0.18900
H978        H  0.25151173  0.97464093  0.25521734     0.18900
C979        C  0.08937156  0.69469407  0.14141921    -0.06900
C980        C  0.09381291  0.70115958  0.17868353    -0.18000
C981        C  0.11811696  0.73465823  0.19267182     0.10300
C982        C  0.13877997  0.76306109  0.16892749    -0.06800
C983        C  0.13566218  0.75612754  0.13168481    -0.18100
C984        C  0.11108939  0.72261492  0.11771557     0.10300
S985        S  0.12013892  0.73889836  0.24088075    -0.33000
S986        S  0.10650372  0.71828328  0.06953462    -0.33000
H987        H  0.06913292  0.69883229  0.06977718     0.28300
H988        H  0.15283065  0.77018831  0.24199536     0.28300
H989        H  0.07738796  0.67995766  0.19723939     0.18900
H990        H  0.15114504  0.77771853  0.11314411     0.18900
C991        C  0.46338788  0.60445858  0.15385276    -0.06900
C992        C  0.44085559  0.56740417  0.15653303    -0.18000
C993        C  0.40787599  0.55274679  0.17356602     0.10300
C994        C  0.39664584  0.57558464  0.18792081    -0.06800
C995        C  0.41901491  0.61257589  0.18507442    -0.18100
C996        C  0.45188859  0.62722903  0.16791815     0.10300
S997        S  0.38254140  0.50496586  0.17760630    -0.33000
S998        S  0.47666967  0.67493240  0.16345640    -0.33000
H999        H  0.48629098  0.67443235  0.12737967     0.28300
H1000       H  0.37164493  0.50508978  0.21324434     0.28300
H1001       H  0.44936636  0.54953995  0.14611974     0.18900
H1002       H  0.41042621  0.63036553  0.19553481     0.18900
C1003       C  0.21566076  0.79667471  0.18775049    -0.06900
C1004       C  0.22191999  0.78025334  0.15847626    -0.18000
C1005       C  0.23609712  0.75776542  0.16344024     0.10300
C1006       C  0.24296781  0.75035859  0.19868973    -0.06800
C1007       C  0.23908334  0.76882223  0.22765849    -0.18100
C1008       C  0.22597066  0.79212276  0.22269984     0.10300
S1009       S  0.24626029  0.73970912  0.12445052    -0.33000
S1010       S  0.22208407  0.81348667  0.26286115    -0.33000
H1011       H  0.21149290  0.83584655  0.24698416     0.28300
H1012       H  0.23891456  0.75861765  0.09835049     0.28300
H1013       H  0.21525197  0.78482738  0.13167601     0.18900
H1014       H  0.24474666  0.76384246  0.25476699     0.18900
C1015       C  0.12640559  0.92906938  0.14231875    -0.06900
C1016       C  0.13935315  0.91426220  0.11720817    -0.18000
C1017       C  0.15010664  0.89010505  0.12781395     0.10300
C1018       C  0.14840927  0.88068260  0.16456239    -0.06800
C1019       C  0.13350597  0.89382057  0.18935694    -0.18100
C1020       C  0.12224182  0.91760570  0.17859310     0.10300
S1021       S  0.16782261  0.87395301  0.09339213    -0.33000
S1022       S  0.10307494  0.93257095  0.21252274    -0.33000
H1023       H  0.08322823  0.94102156  0.18872551     0.28300
H1024       H  0.15718282  0.84080175  0.10927267     0.28300
H1025       H  0.14274568  0.92288335  0.08938711     0.18900
H1026       H  0.13147290  0.88623250  0.21740868     0.18900
C1027       C  0.16699534  0.55653339  0.15277184    -0.06900
C1028       C  0.18614526  0.58554223  0.12957161    -0.18000
C1029       C  0.20790952  0.61981883  0.14303760     0.10300
C1030       C  0.20972734  0.62540135  0.18053452    -0.06800
C1031       C  0.19049481  0.59633176  0.20361615    -0.18100
C1032       C  0.16893296  0.56215641  0.19019318     0.10300
S1033       S  0.23393677  0.65444295  0.11115995    -0.33000
S1034       S  0.14305160  0.52750471  0.22208444    -0.33000
H1035       H  0.11244912  0.51067567  0.20041849     0.28300
H1036       H  0.26336305  0.67353251  0.13391715     0.28300
H1037       H  0.18470449  0.58129527  0.10071702     0.18900
H1038       H  0.19162551  0.60042903  0.23249288     0.18900
C1039       C  0.62329912  0.46020110  0.13125202     0.79400
N1040       N  0.64474841  0.49211035  0.14731130    -0.78900
C1041       C  0.64384252  0.02154580  0.13670058     0.81900
N1042       N  0.62132926  0.01900581  0.11046459    -0.78800
C1043       C  0.59986984  0.48769753  0.09418415     0.82000
N1044       N  0.60085424  0.45795014  0.10420313    -0.80500
C1045       C  0.74932435  0.22043871  0.20656878     0.79400
N1046       N  0.76935892  0.22158087  0.23560959    -0.78900
C1047       C  0.77047148  0.19184706  0.24519549     0.81900
N1048       N  0.75174797  0.16167317  0.22607857    -0.78800
C1049       C  0.73215075  0.16019357  0.19743949     0.82000
N1050       N  0.73053966  0.18947290  0.18787446    -0.80500
C1051       C  0.55888230  0.16028348  0.12918004     0.79400
N1052       N  0.52710290  0.14864390  0.14587266    -0.78900
C1053       C  0.99811809  0.11770762  0.13604636     0.81900
N1054       N  0.00132509  0.09770888  0.11022467    -0.78800
C1055       C  0.53252176  0.10836516  0.09331609     0.82000
N1056       N  0.56176781  0.13996165  0.10255788    -0.80500
C1057       C  0.80085081  0.02272457  0.21159794     0.79400
N1058       N  0.79928920  0.04199175  0.24013723    -0.78900
C1059       C  0.82959975  0.07154986  0.25141482     0.81900
N1060       N  0.86058389  0.08126120  0.23436622    -0.78800
C1061       C  0.86238486  0.06255771  0.20637319     0.82000
N1062       N  0.83249071  0.03333265  0.19504109    -0.80500
C1063       C  0.49642385  0.27338667  0.21006484     0.79400
N1064       N  0.98468814  0.29229424  0.19117659    -0.78900
C1065       C  0.95418002  0.29146079  0.20051405     0.81000
N1066       N  0.93538285  0.27154770  0.22882575    -0.78800
C1067       C  0.94636143  0.25240560  0.24811742     0.82000
N1068       N  0.97722041  0.25333447  0.23892909    -0.80500
C1069       C  0.85794841  0.39210909  0.12430430     0.79400
N1070       N  0.86850415  0.37059143  0.13997387    -0.78900
C1071       C  0.89938494  0.37236893  0.13001040     0.81900
N1072       N  0.92013483  0.39658774  0.10530527    -0.78800
C1073       C  0.91041716  0.41837468  0.08958694     0.82000
N1074       N  0.87895253  0.41622218  0.09874530    -0.80500
C1075       C  0.64407688  0.32234008  0.18109066     0.01500
C1076       C  0.66492637  0.35966372  0.17727885     0.01500
C1077       C  0.70238448  0.37636436  0.17851396     0.01500
C1078       C  0.71905186  0.35550318  0.17764486     0.01500
C1079       C  0.69807403  0.31804765  0.18114451     0.01500
C1080       C  0.66045987  0.30117203  0.18037499     0.01500
O1081       O  0.88330941  0.16334016  0.41140334    -0.79300
C1082       C  0.86406697  0.25014144  0.39738141     0.81800
O1083       O  0.76184674  0.10965562  0.36289786    -0.80400
O1084       O  0.81765240  0.21767275  0.28846496    -0.81900
O1085       O  0.92305890  0.20329107  0.28951516    -0.81700
O1086       O  0.91089381  0.15316287  0.36633394    -0.80300
Zn1087     Zn  0.84582039  0.17230388  0.39107916     1.55700
O1088       O  0.90075525  0.23975249  0.28867426    -0.81700
Cd1089     Cd  0.88569756  0.16271680  0.32317932     1.59700
Cd1090     Cd  0.79938144  0.13441891  0.32164976     1.59600
O1091       O  0.86188726  0.11862943  0.29084742    -0.81700
O1092       O  0.84720147  0.17248148  0.33971456    -1.92200
Cd1093     Cd  0.85780285  0.22074621  0.32208009     1.59900
O1094       O  0.80307098  0.09601190  0.29040352    -0.81600
O1095       O  0.86854247  0.25703361  0.36384208    -0.80300
C1096       C  0.76784224  0.11247705  0.39666556     0.82200
C1097       C  0.90645920  0.15596674  0.39985543     0.81900
O1098       O  0.85492353  0.21938726  0.40966629    -0.79300
C1099       C  0.92301216  0.23088118  0.27772728     0.82700
O1100       O  0.79826018  0.13444323  0.40946103    -0.79400
C1101       C  0.83091895  0.09582847  0.27982851     0.82800
C1102       C  0.79100648  0.18993577  0.27561660     0.83200
O1103       O  0.78224801  0.15873179  0.28635049    -0.81800
C1104       C  0.83027506  0.44790943  0.54847714     0.79400
N1105       N  0.81085902  0.42658973  0.57654165    -0.78900
C1106       C  0.77804383  0.42209088  0.58368204     0.81900
N1107       N  0.76516537  0.43875897  0.56317720    -0.78800
C1108       C  0.78432901  0.46011430  0.53577224     0.82000
N1109       N  0.81685731  0.46463559  0.52844234    -0.80500
C1110       C  0.68936333  0.05989102  0.45662273     0.79400
N1111       N  0.70982983  0.08313268  0.43007488    -0.78900
C1112       C  0.74202402  0.08625511  0.42184759     0.81900
N1113       N  0.75314730  0.06659166  0.43985724    -0.78800
C1114       C  0.73303256  0.04366316  0.46577080     0.82000
N1115       N  0.70125368  0.04041388  0.47411840    -0.80500
C1116       C  0.63812255  0.18542056  0.55088308     0.79400
N1117       N  0.67033377  0.19596604  0.53579544    -0.78900
C1118       C  0.69966869  0.22593479  0.54694692     0.81900
N1119       N  0.69666914  0.24574494  0.57315513    -0.78800
C1120       C  0.66515572  0.23542950  0.58932611     0.82000
N1121       N  0.63549724  0.20516200  0.57822971    -0.80500
C1122       C  0.88973662  0.32784109  0.45803262     0.79400
N1123       N  0.85828087  0.31578069  0.47546647    -0.78900
C1124       C  0.82967993  0.28427714  0.46661021     0.81900
N1125       N  0.83274357  0.26416506  0.44088620    -0.78800
C1126       C  0.86347975  0.27555154  0.42278918     0.82000
N1127       N  0.89251599  0.30757993  0.43129113    -0.80500
C1128       C  0.56757620  0.38082377  0.55741564     0.79400
N1129       N  0.59004486  0.38268217  0.58424924    -0.78900
C1130       C  0.59065470  0.35267267  0.59402762     0.81900
N1131       N  0.56899251  0.32153094  0.57736384    -0.78800
C1132       C  0.54597455  0.31929572  0.55174749     0.82000
N1133       N  0.54571633  0.34908391  0.54144391    -0.80500
C1134       C  0.95563606  0.12857567  0.46234980     0.79400
N1135       N  0.93437451  0.12695097  0.43434529    -0.78900
C1136       C  0.93133948  0.15603676  0.42646595     0.81900
N1137       N  0.94963517  0.18608298  0.44593855    -0.78800
C1138       C  0.97169602  0.18834576  0.47260437     0.82000
N1139       N  0.97420505  0.15934862  0.48125199    -0.80500
C1140       C  0.97478064  0.48964622  0.50936557     0.01500
C1141       C  0.99030066  0.46770458  0.51076484     0.01500
C1142       C  0.52763941  0.48337037  0.51407542     0.01500
C1143       C  0.54963546  0.02067851  0.51116526     0.01500
C1144       C  0.53391750  0.04245671  0.51106089     0.01500
C1145       C  0.49678710  0.02692903  0.50673244     0.01500
C1146       C  0.79026434  0.29354380  0.79617840     0.79400
N1147       N  0.76780944  0.29177400  0.76929357    -0.78900
C1148       C  0.76745931  0.32190391  0.75939739     0.81900
N1149       N  0.78865957  0.35277286  0.77677925    -0.78800
C1150       C  0.81014090  0.35458131  0.80385352     0.82000
N1151       N  0.81116078  0.32499413  0.81315284    -0.80500
C1152       C  0.91029941  0.05098765  0.88271111     0.79400
N1153       N  0.89102193  0.01976019  0.86465970    -0.78900
C1154       C  0.89372771  0.49090355  0.87307852     0.81900
N1155       N  0.91525846  0.49318089  0.90018664    -0.78800
C1156       C  0.93481273  0.02372520  0.91864906     0.82000
N1157       N  0.93275956  0.05321027  0.90983228    -0.80500
C1158       C  0.72868484  0.48691731  0.80301983     0.79400
N1159       N  0.73024109  0.46717926  0.77498417    -0.78900
C1160       C  0.70102704  0.43529935  0.76682447     0.81900
N1161       N  0.67116493  0.42351079  0.78671703    -0.78800
C1162       C  0.66963214  0.44230898  0.81477129     0.82000
N1163       N  0.69826819  0.47429292  0.82259067    -0.80500
C1164       C  0.97163337  0.35125492  0.88612031     0.79400
N1165       N  0.50290895  0.36243083  0.86848776    -0.78900
C1166       C  0.53195055  0.39378019  0.87711862     0.81900
N1167       N  0.52984435  0.41353859  0.90385404    -0.78800
C1168       C  0.99911667  0.40339612  0.92164340     0.82000
N1169       N  0.96945469  0.37198348  0.91279035    -0.80500
C1170       C  0.66858997  0.11211699  0.88399597     0.79400
N1171       N  0.64829261  0.08985923  0.91126276    -0.78900
C1172       C  0.61692966  0.08817064  0.92020344     0.81900
N1173       N  0.60628759  0.10804119  0.90181582    -0.78800
C1174       C  0.62564030  0.12926112  0.87457257     0.82000
N1175       N  0.65698807  0.13163266  0.86591755    -0.80500
C1176       C  0.53324438  0.23448345  0.80277397     0.79400
N1177       N  0.54453511  0.21465257  0.82073141    -0.78900
C1178       C  0.57540287  0.21620743  0.81148626     0.81900
N1179       N  0.59429326  0.23649297  0.78350038    -0.78800
C1180       C  0.58354659  0.25614807  0.76491871     0.82000
N1181       N  0.55283208  0.25537884  0.77450599    -0.80500
C1182       C  0.81185080  0.15485619  0.83904168     0.01500
C1183       C  0.83294612  0.19248550  0.83785713     0.01500
C1184       C  0.87057395  0.20902062  0.83793810     0.01500
C1185       C  0.88674722  0.18771982  0.83519444     0.01500
C1186       C  0.86588375  0.15019051  0.83735143     0.01500
C1187       C  0.82831511  0.13372406  0.83754178     0.01500
O1188       O  0.55130393  0.99465970  0.08065668    -0.79300
C1189       C  0.53300245  0.08286729  0.06783242     0.81800
O1190       O  0.93132028  0.44205730  0.03146781    -0.80400
O1191       O  0.98451724  0.05031509  0.95941849    -0.81900
O1192       O  0.59259257  0.03746098  0.95974000    -0.81700
O1193       O  0.57906521  0.48580043  0.03478693    -0.80300
Zn1194     Zn  0.51441890  0.00489039  0.06071827     1.55700
O1195       O  0.56936435  0.07313759  0.95896047    -0.81700
Cd1196     Cd  0.55441367  0.99605307  0.99201507     1.59700
Cd1197     Cd  0.96853371  0.46708654  0.99062084     1.59600
O1198       O  0.53113722  0.45201244  0.95949462    -0.81700
O1199       O  0.51585929  0.00546863  0.00914047    -1.92200
Cd1200     Cd  0.52580571  0.05363555  0.99191698     1.59900
O1201       O  0.97225870  0.42851202  0.95949940    -0.81600
O1202       O  0.53666151  0.08955174  0.03421453    -0.80300
C1203       C  0.93657052  0.44509074  0.06530271     0.82200
C1204       C  0.57443584  0.48756088  0.06842037     0.81900
O1205       O  0.52425013  0.05217960  0.08009397    -0.79300
C1206       C  0.59246459  0.06515381  0.94847788     0.82700
O1207       O  0.96655167  0.46730343  0.07877531    -0.79400
C1208       C  0.50022970  0.42854345  0.94898678     0.82800
C1209       C  0.95762121  0.02238590  0.94711508     0.83200
O1210       O  0.95009877  0.49127914  0.95693874    -0.81800
O1211       O  0.67002674  0.29018302  0.60234002    -0.79300
C1212       C  0.61738194  0.35300471  0.61823496     0.81800
O1213       O  0.76288621  0.40184569  0.64432640    -0.80400
O1214       O  0.66786577  0.38944102  0.72667473    -0.81900
O1215       O  0.63014573  0.27042481  0.72498263    -0.81700
O1216       O  0.66285772  0.25465445  0.64864413    -0.80300
Zn1217     Zn  0.67803549  0.33652352  0.62192972     1.55700
O1218       O  0.60647545  0.30576278  0.72466105    -0.81700
Cd1219     Cd  0.67290567  0.29035015  0.69085852     1.59700
Cd1220     Cd  0.72978273  0.37667656  0.68870926     1.59600
O1221       O  0.71528886  0.29504816  0.72222112    -0.81700
O1222       O  0.68117987  0.33773808  0.67329628    -1.92200
Cd1223     Cd  0.64338118  0.34728466  0.69232856     1.59900
O1224       O  0.75178491  0.35378684  0.72018640    -0.81600
O1225       O  0.61663143  0.35821128  0.65189169    -0.80300
C1226       C  0.75413064  0.39773738  0.61114829     0.82200
C1227       C  0.66424872  0.26053117  0.61490849     0.81900
O1228       O  0.63851333  0.34381971  0.60479423    -0.79300
C1229       C  0.60720750  0.27843116  0.73597512     0.82700
O1230       O  0.72311948  0.37481232  0.60067953    -0.79400
C1231       C  0.74374333  0.32300340  0.73174195     0.82800
C1232       C  0.69911254  0.41235986  0.73672880     0.83200
O1233       O  0.72679844  0.41363096  0.72332813    -0.81800
C1234       C  0.92526802  0.20446328  0.82663430    -0.06900
C1235       C  0.94949458  0.21246705  0.85485027    -0.18000
C1236       C  0.98558881  0.22519881  0.84800224     0.10300
C1237       C  0.99798277  0.22985433  0.81202503    -0.06800
C1238       C  0.97417173  0.22406094  0.78399077    -0.18100
C1239       C  0.93804396  0.21110901  0.79067242     0.10300
S1240       S  0.01440820  0.23487306  0.88637240    -0.33000
S1241       S  0.91034384  0.20207988  0.75130982    -0.33000
H1242       H  0.87699206  0.18675133  0.76796029     0.28300
H1243       H  0.54488572  0.26201884  0.86941213     0.28300
H1244       H  0.94006794  0.20811443  0.88241249     0.18900
H1245       H  0.98330871  0.22736340  0.75635934     0.18900
C1246       C  0.70368700  0.11680064  0.87360959    -0.06900
C1247       C  0.71116546  0.11730748  0.83669032    -0.18000
C1248       C  0.74549958  0.12785269  0.82415384     0.10300
C1249       C  0.77351130  0.13832781  0.84920928    -0.06800
C1250       C  0.76555595  0.13578980  0.88616444    -0.18100
C1251       C  0.73134052  0.12574885  0.89859496     0.10300
S1252       S  0.75093060  0.12773707  0.77600627    -0.33000
S1253       S  0.72562070  0.12806067  0.94635109    -0.33000
H1254       H  0.70510713  0.14476314  0.94331761     0.28300
H1255       H  0.78759668  0.14111638  0.77515390     0.28300
H1256       H  0.69011817  0.11045972  0.81723085     0.18900
H1257       H  0.78671625  0.14344732  0.90562594     0.18900
C1258       C  0.58802302  0.19489559  0.83008418    -0.06900
C1259       C  0.56480765  0.15828625  0.83338067    -0.18000
C1260       C  0.57697582  0.13594158  0.84578817     0.10300
C1261       C  0.61295387  0.15065379  0.85613374    -0.06800
C1262       C  0.63616039  0.18728550  0.85284009    -0.18100
C1263       C  0.62402354  0.20960969  0.84027654     0.10300
S1264       S  0.54573204  0.08878346  0.84607282    -0.33000
S1265       S  0.65541364  0.25673198  0.83921552    -0.33000
H1266       H  0.63033629  0.26745941  0.84631807     0.28300
H1267       H  0.57099807  0.07839953  0.83856700     0.28300
H1268       H  0.53742220  0.14682005  0.82466534     0.18900
H1269       H  0.66357330  0.19877262  0.86149358     0.18900
C1270       C  0.94115273  0.31630561  0.87568273    -0.06900
C1271       C  0.93191546  0.31045817  0.83909107    -0.18000
C1272       C  0.90800581  0.27652781  0.82566936     0.10300
C1273       C  0.89291486  0.24705698  0.84942708    -0.06800
C1274       C  0.90146645  0.25322454  0.88626239    -0.18100
C1275       C  0.92520003  0.28724744  0.89959497     0.10300
S1276       S  0.89980203  0.27374841  0.77794414    -0.33000
S1277       S  0.93571158  0.29126584  0.94689072    -0.33000
H1278       H  0.97219630  0.31549810  0.94275707     0.28300
H1279       H  0.87474965  0.23775743  0.77645078     0.28300
H1280       H  0.94438441  0.33258010  0.82046855     0.18900
H1281       H  0.89052670  0.23092653  0.90471337     0.18900
C1282       C  0.75812661  0.02329186  0.81108277    -0.06900
C1283       C  0.76667067  0.03352634  0.84737217    -0.18000
C1284       C  0.79057291  0.06903099  0.85698774     0.10300
C1285       C  0.80615345  0.09491727  0.82981527    -0.06800
C1286       C  0.79873764  0.08436559  0.79366834    -0.18100
C1287       C  0.77476243  0.04924774  0.78401415     0.10300
S1288       S  0.80040875  0.08122919  0.90374353    -0.33000
S1289       S  0.76414806  0.04029335  0.73691700    -0.33000
H1290       H  0.72717353  0.02049655  0.74235439     0.28300
H1291       H  0.77882725  0.04699068  0.91800931     0.28300
H1292       H  0.75385701  0.01373022  0.86822923     0.18900
H1293       H  0.81039145  0.10403830  0.77258271     0.18900
C1294       C  0.56628423  0.40610809  0.85909257    -0.06900
C1295       C  0.57834078  0.38192702  0.85402774    -0.18000
C1296       C  0.61271652  0.39329640  0.84153661     0.10300
C1297       C  0.63549203  0.42966614  0.83332162    -0.06800
C1298       C  0.62337439  0.45379194  0.83835958    -0.18100
C1299       C  0.58893755  0.44238640  0.85049371     0.10300
S1300       S  0.62625171  0.36029671  0.83805236    -0.33000
S1301       S  0.57496084  0.47514005  0.85238198    -0.33000
H1302       H  0.53940655  0.45147227  0.84287649     0.28300
H1303       H  0.66216509  0.38366008  0.84646235     0.28300
H1304       H  0.56134393  0.35418698  0.86116734     0.18900
H1305       H  0.64024759  0.48149782  0.83104403     0.18900
C1306       C  0.88298997  0.12875346  0.84709120    -0.06900
C1307       C  0.88995539  0.12693604  0.88380429    -0.18000
C1308       C  0.90073465  0.10331987  0.89646715     0.10300
C1309       C  0.90562646  0.08136245  0.87181060    -0.06800
C1310       C  0.90143347  0.08535996  0.83489055    -0.18100
C1311       C  0.89021359  0.10850018  0.82222499     0.10300
S1312       S  0.90491957  0.10056619  0.94440284    -0.33000
S1313       S  0.88574976  0.10991766  0.77414553    -0.33000
H1314       H  0.87055727  0.13147919  0.77373900     0.28300
H1315       H  0.88560460  0.06319105  0.94545230     0.28300
H1316       H  0.88496528  0.14268131  0.90307764     0.18900
H1317       H  0.90587299  0.06928769  0.81556255     0.18900
C1318       C  0.79406019  0.26266261  0.80691097    -0.06900
C1319       C  0.79927044  0.25854078  0.84365055    -0.18000
C1320       C  0.81006503  0.23466146  0.85531475     0.10300
C1321       C  0.81590209  0.21417771  0.82958533    -0.06800
C1322       C  0.80806453  0.21639276  0.79330195    -0.18100
C1323       C  0.79773725  0.24049317  0.78162512     0.10300
S1324       S  0.81645314  0.23270574  0.90308662    -0.33000
S1325       S  0.79355013  0.24415271  0.73381267    -0.33000
H1326       H  0.81486025  0.28142590  0.73325000     0.28300
H1327       H  0.82516398  0.20572974  0.90284351     0.28300
H1328       H  0.79605529  0.27504001  0.86346935     0.18900
H1329       H  0.81281488  0.20119146  0.77323704     0.18900
C1330       C  0.83219722  0.38895503  0.82221043    -0.06900
C1331       C  0.84396802  0.42023913  0.80195938    -0.18000
C1332       C  0.86448175  0.45380903  0.81738049     0.10300
C1333       C  0.87286221  0.45654394  0.85435622    -0.06800
C1334       C  0.86148229  0.42527903  0.87450954    -0.18100
C1335       C  0.84113787  0.39170918  0.85908446     0.10300
S1336       S  0.88064581  0.49168267  0.78785088    -0.33000
S1337       S  0.82600702  0.35393108  0.88861303    -0.33000
H1338       H  0.79094181  0.33667632  0.87545611     0.28300
H1339       H  0.91486268  0.00967597  0.80309897     0.28300
H1340       H  0.83783840  0.41858770  0.77349376     0.18900
H1341       H  0.86763553  0.42693598  0.90297433     0.18900
C1342       C  0.95961664  0.09775990  0.47251692    -0.06900
C1343       C  0.47446952  0.08474045  0.44752843    -0.18000
C1344       C  0.48557118  0.06075441  0.45786284     0.10300
C1345       C  0.98186830  0.04940721  0.49416783    -0.06800
C1346       C  0.96544159  0.06110505  0.51877969    -0.18100
C1347       C  0.95411798  0.08488773  0.50830817     0.10300
S1348       S  0.50609752  0.04737958  0.42362901    -0.33000
S1349       S  0.93316130  0.09817553  0.54199258    -0.33000
H1350       H  0.91233570  0.10492973  0.51779577     0.28300
H1351       H  0.49973284  0.01538381  0.43943974     0.28300
H1352       H  0.47904165  0.09463031  0.42016912     0.18900
H1353       H  0.96202668  0.05224858  0.54642222     0.18900
C1354       C  0.56524885  0.41227300  0.54589751    -0.06900
C1355       C  0.55860012  0.43137672  0.57203309    -0.18000
C1356       C  0.54742740  0.45545731  0.56250518     0.10300
C1357       C  0.54311655  0.46107962  0.52557937    -0.06800
C1358       C  0.55218294  0.44377804  0.49936680    -0.18100
C1359       C  0.56346264  0.41977350  0.50909008     0.10300
S1360       S  0.53780368  0.47624475  0.59960716    -0.33000
S1361       S  0.57516001  0.39948815  0.47327299    -0.33000
H1362       H  0.59933908  0.39409928  0.49368569     0.28300
H1363       H  0.52389279  0.49397961  0.58020201     0.28300
H1364       H  0.55991422  0.42582463  0.60025435     0.18900
H1365       H  0.54980650  0.44850833  0.47113081     0.18900
C1366       C  0.99172443  0.22199291  0.49245999    -0.06900
C1367       C  0.49340747  0.22093068  0.53006647    -0.18000
C1368       C  0.50908856  0.25222027  0.55036598     0.10300
C1369       C  0.52441621  0.28547828  0.53263684    -0.06800
C1370       C  0.52237489  0.28647842  0.49510263    -0.18100
C1371       C  0.00670036  0.25530207  0.47482996     0.10300
S1372       S  0.50703149  0.24779615  0.59870678    -0.33000
S1373       S  0.00864713  0.26017159  0.42652264    -0.33000
H1374       H  0.01417829  0.23139792  0.41985909     0.28300
H1375       H  0.50380592  0.27799599  0.60516390     0.28300
H1376       H  0.48123086  0.19548695  0.54384486     0.18900
H1377       H  0.53463672  0.31188151  0.48121628     0.18900
C1378       C  0.96863833  0.42984982  0.49925812    -0.06900
C1379       C  0.96805966  0.42271734  0.46220326    -0.18000
C1380       C  0.94380684  0.38940327  0.44766224     0.10300
C1381       C  0.92025748  0.36189168  0.47079574    -0.06800
C1382       C  0.92305041  0.36831418  0.50813280    -0.18100
C1383       C  0.94658501  0.40173949  0.52260878     0.10300
S1384       S  0.94222878  0.38489942  0.39941735    -0.33000
S1385       S  0.94618368  0.40587264  0.57086235    -0.33000
H1386       H  0.96751912  0.44267054  0.57299748     0.28300
H1387       H  0.90491797  0.36687265  0.39728230     0.28300
H1388       H  0.98509658  0.44407612  0.44412714     0.18900
H1389       H  0.90564990  0.34723804  0.52632470     0.18900
C1390       C  0.55588744  0.08092421  0.52001972    -0.06900
C1391       C  0.57866662  0.10425027  0.49375766    -0.18000
C1392       C  0.60388903  0.13951857  0.50230947     0.10300
C1393       C  0.60701432  0.15165776  0.53832826    -0.06800
C1394       C  0.58207143  0.12927750  0.56371679    -0.18100
C1395       C  0.55650754  0.09426043  0.55515126     0.10300
S1396       S  0.63122170  0.16871410  0.46668127    -0.33000
S1397       S  0.52795466  0.06835072  0.59187765    -0.33000
H1398       H  0.00719142  0.03614035  0.57434556     0.28300
H1399       H  0.61615117  0.14430058  0.43819173     0.28300
H1400       H  0.57728653  0.09437270  0.46670044     0.18900
H1401       H  0.58376807  0.13844640  0.59118175     0.18900
C1402       C  0.79624680  0.27042293  0.48659289    -0.06900
C1403       C  0.79778916  0.27422972  0.52412260    -0.18000
C1404       C  0.76676910  0.25876027  0.54490110     0.10300
C1405       C  0.73348263  0.23945355  0.52753543    -0.06800
C1406       C  0.73213081  0.23537448  0.49007438    -0.18100
C1407       C  0.76293599  0.25094888  0.46940787     0.10300
S1408       S  0.77027138  0.26224281  0.59342246    -0.33000
S1409       S  0.75757172  0.24642211  0.42119170    -0.33000
H1410       H  0.78577464  0.28074139  0.41347960     0.28300
H1411       H  0.80758311  0.28200846  0.59537685     0.28300
H1412       H  0.82348707  0.28853159  0.53722226     0.18900
H1413       H  0.70672042  0.22126435  0.47646892     0.18900
C1414       C  0.65485229  0.05567295  0.46857367    -0.06900
C1415       C  0.65049286  0.05937165  0.50555683    -0.18000
C1416       C  0.61716716  0.04953169  0.52052493     0.10300
C1417       C  0.58691781  0.03532582  0.49799800    -0.06800
C1418       C  0.59152700  0.03297911  0.46076078    -0.18100
C1419       C  0.62484525  0.04247486  0.44593441     0.10300
S1420       S  0.61573599  0.05476331  0.56850135    -0.33000
S1421       S  0.62671153  0.03459264  0.39857235    -0.33000
H1422       H  0.65143719  0.02282300  0.40164220     0.28300
H1423       H  0.58081954  0.04786578  0.57077553     0.28300
H1424       H  0.67332333  0.06906809  0.52328176     0.18900
H1425       H  0.56848192  0.02208814  0.44320799     0.18900
C1426       C  0.93653699  0.47477153  0.51854609    -0.06900
C1427       C  0.92793254  0.97541354  0.55489541    -0.18000
C1428       C  0.89341420  0.46577568  0.56562858     0.10300
C1429       C  0.86627452  0.45439037  0.53959962    -0.06800
C1430       C  0.87467908  0.45299306  0.50321774    -0.18100
C1431       C  0.90954310  0.46319496  0.49243261     0.10300
S1432       S  0.88657807  0.97170463  0.61238437    -0.33000
S1433       S  0.91964243  0.46295290  0.44539578    -0.33000
H1434       H  0.88462188  0.44835592  0.43262667     0.28300
H1435       H  0.86497713  0.98672457  0.60568498     0.28300
H1436       H  0.94870292  0.98519533  0.57499033     0.18900
H1437       H  0.85400355  0.44477363  0.48317135     0.18900
C1438       C  0.74597840  0.02247479  0.48424271    -0.06900
C1439       C  0.76228669  0.00755809  0.46350058    -0.18000
C1440       C  0.77442730  0.48639974  0.47922118     0.10300
C1441       C  0.77078973  0.48052846  0.51670393    -0.06800
C1442       C  0.75452146  0.49551298  0.53738794    -0.18100
C1443       C  0.74262667  0.01682487  0.52174158     0.10300
S1444       S  0.79265739  0.46648069  0.44981147    -0.33000
S1445       S  0.72570665  0.03779505  0.55143904    -0.33000
H1446       H  0.74119340  0.07027142  0.53266957     0.28300
H1447       H  0.77856356  0.43428266  0.46892226     0.28300
H1448       H  0.76478530  0.01168508  0.43459905     0.18900
H1449       H  0.75223651  0.49168728  0.56631468     0.18900
C1450       C  0.82361497  0.38839748  0.13562580    -0.06900
C1451       C  0.82006676  0.39693754  0.17131046    -0.18000
C1452       C  0.78671576  0.38843167  0.18561074     0.10300
C1453       C  0.75617317  0.37082923  0.16376088    -0.06800
C1454       C  0.76015281  0.36413247  0.12752643    -0.18100
C1455       C  0.79320946  0.37196753  0.11349856     0.10300
S1456       S  0.78347409  0.39891349  0.23187229    -0.33000
S1457       S  0.79427895  0.35787445  0.06808792    -0.33000
H1458       H  0.81986488  0.34769600  0.07438076     0.28300
H1459       H  0.82018319  0.41828364  0.23889651     0.28300
H1460       H  0.84342225  0.40918098  0.18834833     0.18900
H1461       H  0.73679029  0.35065845  0.11056274     0.18900
C1462       C  0.53229026  0.27921123  0.20193106    -0.06900
C1463       C  0.55626082  0.28864609  0.23054004    -0.18000
C1464       C  0.59258038  0.30254488  0.22454432     0.10300
C1465       C  0.60546808  0.30585816  0.18886419    -0.06800
C1466       C  0.58134983  0.29503319  0.16018810    -0.18100
C1467       C  0.54505030  0.28205202  0.16624249     0.10300
S1468       S  0.62054205  0.31788835  0.26400240    -0.33000
S1469       S  0.51678116  0.27049230  0.12714702    -0.33000
H1470       H  0.98523605  0.24592909  0.14456246     0.28300
H1471       H  0.65222649  0.32385064  0.24830171     0.28300
H1472       H  0.54698656  0.28754317  0.25786212     0.18900
H1473       H  0.59103930  0.29760947  0.13284873     0.18900
C1474       C  0.91231213  0.35020225  0.14694596    -0.06900
C1475       C  0.94930432  0.36490260  0.15038052    -0.18000
C1476       C  0.96387027  0.34643672  0.16720461     0.10300
C1477       C  0.94104178  0.31204192  0.18082833    -0.06800
C1478       C  0.90408488  0.29698401  0.17675573    -0.18100
C1479       C  0.88952250  0.31533993  0.15950622     0.10300
S1480       S  0.51154330  0.36929803  0.17207270    -0.33000
S1481       S  0.84205216  0.29201762  0.15293895    -0.33000
H1482       H  0.84370706  0.30481937  0.11778553     0.28300
H1483       H  0.51078195  0.35951082  0.20829721     0.28300
H1484       H  0.96721499  0.39161655  0.14088828     0.18900
H1485       H  0.88634010  0.27032695  0.18650880     0.18900
C1486       C  0.72366651  0.41529379  0.18565194    -0.06900
C1487       C  0.74313762  0.43882579  0.15794465    -0.18000
C1488       C  0.76563696  0.47510213  0.16495194     0.10300
C1489       C  0.76994947  0.48810317  0.20075641    -0.06800
C1490       C  0.74835688  0.46497662  0.22782711    -0.18100
C1491       C  0.72520704  0.42885734  0.22064296     0.10300
S1492       S  0.78792366  0.00342167  0.12699161    -0.33000
S1493       S  0.70033402  0.39974656  0.25724763    -0.33000
H1494       H  0.70860729  0.42633046  0.28322308     0.28300
H1495       H  0.78989913  0.03406958  0.14214810     0.28300
H1496       H  0.74109942  0.42880095  0.13081389     0.18900
H1497       H  0.75151235  0.47464103  0.25521795     0.18900
C1498       C  0.58937169  0.19469425  0.14141885    -0.06900
C1499       C  0.59381294  0.20115926  0.17868340    -0.18000
C1500       C  0.61811721  0.23465810  0.19267147     0.10300
C1501       C  0.63877998  0.26306099  0.16892724    -0.06800
C1502       C  0.63566260  0.25612826  0.13168400    -0.18100
C1503       C  0.61108931  0.22261514  0.11771531     0.10300
S1504       S  0.62013918  0.23889796  0.24088058    -0.33000
S1505       S  0.60650335  0.21828363  0.06953434    -0.33000
H1506       H  0.56913253  0.19883243  0.06977710     0.28300
H1507       H  0.65283042  0.27018844  0.24199525     0.28300
H1508       H  0.57738872  0.17995795  0.19723854     0.18900
H1509       H  0.65114222  0.27771505  0.11314700     0.18900
C1510       C  0.96338785  0.10445820  0.15385288    -0.06900
C1511       C  0.94085591  0.06740398  0.15653413    -0.18000
C1512       C  0.90787641  0.05274635  0.17356713     0.10300
C1513       C  0.89664593  0.07558423  0.18792140    -0.06800
C1514       C  0.91901470  0.11257513  0.18507390    -0.18100
C1515       C  0.95188813  0.12722866  0.16791747     0.10300
S1516       S  0.88254220  0.00496555  0.17760820    -0.33000
S1517       S  0.97666832  0.17493185  0.16345394    -0.33000
H1518       H  0.98628969  0.17443072  0.12737746     0.28300
H1519       H  0.87164527  0.00508981  0.21324597     0.28300
H1520       H  0.94936733  0.04953905  0.14612090     0.18900
H1521       H  0.91042458  0.13036684  0.19553508     0.18900
C1522       C  0.71566072  0.29667447  0.18775080    -0.06900
C1523       C  0.72191969  0.28025316  0.15847601    -0.18000
C1524       C  0.73609658  0.25776487  0.16344069     0.10300
C1525       C  0.74296719  0.25035805  0.19869000    -0.06800
C1526       C  0.73908299  0.26882152  0.22765961    -0.18100
C1527       C  0.72597038  0.29212233  0.22270004     0.10300
S1528       S  0.74625947  0.23970826  0.12445081    -0.33000
S1529       S  0.72208374  0.31348618  0.26286150    -0.33000
H1530       H  0.71149265  0.33584613  0.24698442     0.28300
H1531       H  0.73891134  0.25861467  0.09835048     0.28300
H1532       H  0.71525248  0.28482687  0.13167866     0.18900
H1533       H  0.74474512  0.26384271  0.25476268     0.18900
C1534       C  0.62640557  0.42906940  0.14231902    -0.06900
C1535       C  0.63935231  0.41426170  0.11720783    -0.18000
C1536       C  0.65010559  0.39010429  0.12781396     0.10300
C1537       C  0.64840904  0.38068245  0.16456248    -0.06800
C1538       C  0.63350648  0.39382101  0.18935718    -0.18100
C1539       C  0.62224240  0.41760619  0.17859342     0.10300
S1540       S  0.66782041  0.37395125  0.09339199    -0.33000
S1541       S  0.60307618  0.43257193  0.21252345    -0.33000
H1542       H  0.58322883  0.44102187  0.18872642     0.28300
H1543       H  0.65718046  0.34080011  0.10927290     0.28300
H1544       H  0.64274388  0.42288141  0.08939014     0.18900
H1545       H  0.63147388  0.38623303  0.21741030     0.18900
C1546       C  0.66699509  0.05653321  0.15277180    -0.06900
C1547       C  0.68614440  0.08554202  0.12957069    -0.18000
C1548       C  0.70790897  0.11981859  0.14303768     0.10300
C1549       C  0.70972748  0.12540092  0.18053456    -0.06800
C1550       C  0.69049561  0.09633123  0.20361650    -0.18100
C1551       C  0.66893364  0.06215595  0.19019307     0.10300
S1552       S  0.73393609  0.15444287  0.11116005    -0.33000
S1553       S  0.64305326  0.02750397  0.22208467    -0.33000
H1554       H  0.61245015  0.01067521  0.20041957     0.28300
H1555       H  0.76336259  0.17353223  0.13391712     0.28300
H1556       H  0.68470330  0.08129606  0.10072193     0.18900
H1557       H  0.69162684  0.10042812  0.23249237     0.18900
C1558       C  0.62329910  0.96020108  0.13125202     0.79400
N1559       N  0.64474824  0.99211020  0.14731136    -0.78900
C1560       C  0.64384283  0.52154594  0.13670046     0.81900
N1561       N  0.62132946  0.51900588  0.11046441    -0.78800
C1562       C  0.59986974  0.98769756  0.09418412     0.82000
N1563       N  0.60085419  0.95795013  0.10420297    -0.80500
C1564       C  0.74932457  0.72043904  0.20656823     0.79400
N1565       N  0.76935934  0.72158122  0.23560923    -0.78900
C1566       C  0.77047163  0.69184727  0.24519509     0.81900
N1567       N  0.75174781  0.66167335  0.22607828    -0.78800
C1568       C  0.73215062  0.66019384  0.19743921     0.82000
N1569       N  0.73053981  0.68947329  0.18787419    -0.80500
C1570       C  0.55888247  0.66028343  0.12918007     0.79400
N1571       N  0.52710295  0.64864384  0.14587255    -0.78900
C1572       C  0.99811819  0.61770767  0.13604629     0.81900
N1573       N  0.00132527  0.59770904  0.11022465    -0.78800
C1574       C  0.53252196  0.60836522  0.09331605     0.82000
N1575       N  0.56176803  0.63996163  0.10255797    -0.80500
C1576       C  0.80085060  0.52272475  0.21159748     0.79400
N1577       N  0.79928904  0.54199195  0.24013692    -0.78900
C1578       C  0.82959961  0.57155020  0.25141425     0.81900
N1579       N  0.86058370  0.58126166  0.23436544    -0.78800
C1580       C  0.86238460  0.56255816  0.20637235     0.82000
N1581       N  0.83249040  0.53333300  0.19504054    -0.80500
C1582       C  0.49642411  0.77338719  0.21006549     0.79400
N1583       N  0.98468850  0.79229486  0.19117714    -0.78900
C1584       C  0.95418054  0.79146163  0.20051452     0.81000
N1585       N  0.93538326  0.77154846  0.22882632    -0.78800
C1586       C  0.94636176  0.75240619  0.24811783     0.82000
N1587       N  0.97722068  0.75333496  0.23892947    -0.80500
C1588       C  0.85794837  0.89210896  0.12430397     0.79400
N1589       N  0.86850407  0.87059148  0.13997370    -0.78900
C1590       C  0.89938496  0.87236907  0.13001035     0.81900
N1591       N  0.92013484  0.89658781  0.10530527    -0.78800
C1592       C  0.91041714  0.91837462  0.08958671     0.82000
N1593       N  0.87895245  0.91622210  0.09874490    -0.80500
C1594       C  0.64407694  0.82234022  0.18109061     0.01500
C1595       C  0.66492648  0.85966389  0.17727868     0.01500
C1596       C  0.70238459  0.87636449  0.17851363     0.01500
C1597       C  0.71905182  0.85550318  0.17764445     0.01500
C1598       C  0.69807413  0.81804776  0.18114437     0.01500
C1599       C  0.66045990  0.80117207  0.18037497     0.01500
O1600       O  0.88330909  0.66334003  0.41140322    -0.79300
C1601       C  0.86406695  0.75014164  0.39738135     0.81800
O1602       O  0.76184663  0.60965577  0.36289730    -0.80400
O1603       O  0.81765253  0.71767295  0.28846459    -0.81900
O1604       O  0.92305897  0.70329137  0.28951526    -0.81700
O1605       O  0.91089361  0.65316285  0.36633391    -0.80300
Zn1606     Zn  0.84582019  0.67230399  0.39107903     1.55700
O1607       O  0.90075541  0.73975285  0.28867446    -0.81700
Cd1608     Cd  0.88569750  0.66271695  0.32317915     1.59700
Cd1609     Cd  0.79938144  0.63441915  0.32164942     1.59600
O1610       O  0.86188722  0.61862972  0.29084700    -0.81700
O1611       O  0.84720142  0.67248165  0.33971441    -1.92200
Cd1612     Cd  0.85780281  0.72074640  0.32208001     1.59900
O1613       O  0.80307097  0.59601218  0.29040314    -0.81600
O1614       O  0.86854229  0.75703375  0.36384199    -0.80300
C1615       C  0.76784198  0.61247707  0.39666502     0.82200
C1616       C  0.90645892  0.65596665  0.39985537     0.81900
O1617       O  0.85492346  0.71938745  0.40966628    -0.79300
C1618       C  0.92301238  0.73088163  0.27772756     0.82700
O1619       O  0.79825983  0.63444331  0.40946069    -0.79400
C1620       C  0.83091893  0.59582880  0.27982802     0.82800
C1621       C  0.79100659  0.68993596  0.27561623     0.83200
O1622       O  0.78224806  0.65873193  0.28635009    -0.81800
C1623       C  0.83027513  0.94790877  0.54847684     0.79400
N1624       N  0.81085926  0.92658919  0.57654149    -0.78900
C1625       C  0.77804423  0.92209054  0.58368223     0.81900
N1626       N  0.76516578  0.93875874  0.56317758    -0.78800
C1627       C  0.78432915  0.96011388  0.53577245     0.82000
N1628       N  0.81685735  0.96463504  0.52844216    -0.80500
C1629       C  0.68936277  0.55989030  0.45662169     0.79400
N1630       N  0.70982929  0.58313226  0.43007397    -0.78900
C1631       C  0.74202366  0.58625497  0.42184686     0.81900
N1632       N  0.75314696  0.56659151  0.43985641    -0.78800
C1633       C  0.73303229  0.54366289  0.46576966     0.82000
N1634       N  0.70125318  0.54041324  0.47411726    -0.80500
C1635       C  0.63812239  0.68542042  0.55088239     0.79400
N1636       N  0.67033362  0.69596612  0.53579481    -0.78900
C1637       C  0.69966865  0.72593503  0.54694651     0.81900
N1638       N  0.69666879  0.74574477  0.57315469    -0.78800
C1639       C  0.66515538  0.73542924  0.58932573     0.82000
N1640       N  0.63549690  0.70516172  0.57822924    -0.80500
C1641       C  0.88973690  0.82784133  0.45803266     0.79400
N1642       N  0.85828123  0.81578121  0.47546645    -0.78900
C1643       C  0.82967996  0.78427759  0.46660989     0.81900
N1644       N  0.83274366  0.76416563  0.44088599    -0.78800
C1645       C  0.86347983  0.77555183  0.42278908     0.82000
N1646       N  0.89251620  0.80758009  0.43129113    -0.80500
C1647       C  0.56757645  0.88082362  0.55741565     0.79400
N1648       N  0.59004492  0.88268197  0.58424917    -0.78900
C1649       C  0.59065502  0.85267263  0.59402752     0.81900
N1650       N  0.56899317  0.82153094  0.57736351    -0.78800
C1651       C  0.54597524  0.81929577  0.55174700     0.82000
N1652       N  0.54571680  0.84908375  0.54144349    -0.80500
C1653       C  0.95563552  0.62857533  0.46235006     0.79400
N1654       N  0.93437402  0.62695066  0.43434535    -0.78900
C1655       C  0.93133911  0.65603653  0.42646594     0.81900
N1656       N  0.94963482  0.68608270  0.44593859    -0.78800
C1657       C  0.97169559  0.68834540  0.47260453     0.82000
N1658       N  0.97420449  0.65934824  0.48125215    -0.80500
C1659       C  0.97478100  0.98964641  0.50936555     0.01500
C1660       C  0.99030111  0.96770480  0.51076486     0.01500
C1661       C  0.52763990  0.98337070  0.51407565     0.01500
C1662       C  0.54963492  0.52067804  0.51116475     0.01500
C1663       C  0.53391718  0.54245645  0.51106046     0.01500
C1664       C  0.49678678  0.52692878  0.50673210     0.01500
C1665       C  0.79026414  0.79354339  0.79617847     0.79400
N1666       N  0.76780920  0.79177360  0.76929389    -0.78900
C1667       C  0.76745906  0.82190348  0.75939757     0.81900
N1668       N  0.78865950  0.85277250  0.77677917    -0.78800
C1669       C  0.81014096  0.85458118  0.80385322     0.82000
N1670       N  0.81116092  0.82499400  0.81315278    -0.80500
C1671       C  0.91030011  0.55098790  0.88271112     0.79400
N1672       N  0.89102250  0.51976024  0.86465989    -0.78900
C1673       C  0.89372733  0.99090342  0.87307842     0.81900
N1674       N  0.91525789  0.99318074  0.90018629    -0.78800
C1675       C  0.93481340  0.52372549  0.91864918     0.82000
N1676       N  0.93276024  0.55321052  0.90983223    -0.80500
C1677       C  0.72868479  0.98691756  0.80301930     0.79400
N1678       N  0.73024105  0.96717944  0.77498376    -0.78900
C1679       C  0.70102699  0.93529950  0.76682411     0.81900
N1680       N  0.67116493  0.92351100  0.78671674    -0.78800
C1681       C  0.66963201  0.94230916  0.81477084     0.82000
N1682       N  0.69826821  0.97429324  0.82259023    -0.80500
C1683       C  0.97163361  0.85125496  0.88612019     0.79400
N1684       N  0.50290915  0.86243096  0.86848780    -0.78900
C1685       C  0.53195058  0.89378008  0.87711858     0.81900
N1686       N  0.52984456  0.91353865  0.90385411    -0.78800
C1687       C  0.99911686  0.90339608  0.92164338     0.82000
N1688       N  0.96945486  0.87198351  0.91279028    -0.80500
C1689       C  0.66859029  0.61211714  0.88399597     0.79400
N1690       N  0.64829302  0.58985923  0.91126291    -0.78900
C1691       C  0.61693009  0.58817066  0.92020352     0.81900
N1692       N  0.60628800  0.60804123  0.90181597    -0.78800
C1693       C  0.62564091  0.62926120  0.87457260     0.82000
N1694       N  0.65698841  0.63163265  0.86591770    -0.80500
C1695       C  0.53324441  0.73448287  0.80277393     0.79400
N1696       N  0.54453522  0.71465214  0.82073133    -0.78900
C1697       C  0.57540309  0.71620703  0.81148608     0.81900
N1698       N  0.59429332  0.73649257  0.78350027    -0.78800
C1699       C  0.58354659  0.75614762  0.76491855     0.82000
N1700       N  0.55283201  0.75537831  0.77450585    -0.80500
C1701       C  0.81185112  0.65485618  0.83904189     0.01500
C1702       C  0.83294649  0.69248559  0.83785733     0.01500
C1703       C  0.87057430  0.70902050  0.83793846     0.01500
C1704       C  0.88674746  0.68771966  0.83519465     0.01500
C1705       C  0.86588394  0.65019037  0.83735156     0.01500
C1706       C  0.82831533  0.63372399  0.83754183     0.01500
O1707       O  0.55130409  0.49465978  0.08065667    -0.79300
C1708       C  0.53300274  0.58286734  0.06783243     0.81800
O1709       O  0.93132021  0.94205711  0.03146756    -0.80400
O1710       O  0.98451793  0.55031541  0.95941854    -0.81900
O1711       O  0.59259294  0.53746099  0.95974003    -0.81700
O1712       O  0.57906521  0.98580060  0.03478689    -0.80300
Zn1713     Zn  0.51441898  0.50489037  0.06071833     1.55700
O1714       O  0.56936475  0.57313763  0.95896055    -0.81700
Cd1715     Cd  0.55441384  0.49605304  0.99201509     1.59700
Cd1716     Cd  0.96853355  0.96708641  0.99062054     1.59600
O1717       O  0.53113726  0.95201249  0.95949467    -0.81700
O1718       O  0.51585956  0.50546869  0.00914052    -1.92200
Cd1719     Cd  0.52580614  0.55363566  0.99191700     1.59900
O1720       O  0.97225873  0.92851194  0.95949925    -0.81600
O1721       O  0.53666196  0.58955186  0.03421453    -0.80300
C1722       C  0.93657051  0.94509066  0.06530248     0.82200
C1723       C  0.57443580  0.98756099  0.06842033     0.81900
O1724       O  0.52425011  0.55217954  0.08009394    -0.79300
C1725       C  0.59246500  0.56515386  0.94847797     0.82700
O1726       O  0.96655163  0.96730345  0.07877513    -0.79400
C1727       C  0.50022977  0.92854345  0.94898681     0.82800
C1728       C  0.95762184  0.52238624  0.94711523     0.83200
O1729       O  0.95009832  0.99127880  0.95693839    -0.81800
O1730       O  0.67002646  0.79018281  0.60233987    -0.79300
C1731       C  0.61738220  0.85300472  0.61823493     0.81800
O1732       O  0.76288653  0.90184546  0.64432668    -0.80400
O1733       O  0.66786577  0.88944098  0.72667458    -0.81900
O1734       O  0.63014564  0.77042441  0.72498239    -0.81700
O1735       O  0.66285763  0.75465421  0.64864388    -0.80300
Zn1736     Zn  0.67803570  0.83652344  0.62192974     1.55700
O1737       O  0.60647557  0.80576259  0.72466115    -0.81700
Cd1738     Cd  0.67290564  0.79034988  0.69085837     1.59700
Cd1739     Cd  0.72978277  0.87667637  0.68870942     1.59600
O1740       O  0.71528869  0.79504773  0.72222110    -0.81700
O1741       O  0.68117995  0.83773792  0.67329632    -1.92200
Cd1742     Cd  0.64338119  0.84728443  0.69232860     1.59900
O1743       O  0.75178463  0.85378647  0.72018673    -0.81600
O1744       O  0.61663133  0.85821087  0.65189169    -0.80300
C1745       C  0.75413107  0.89773709  0.61114853     0.82200
C1746       C  0.66424840  0.76053090  0.61490824     0.81900
O1747       O  0.63851387  0.84382010  0.60479423    -0.79300
C1748       C  0.60720744  0.77843077  0.73597494     0.82700
O1749       O  0.72311995  0.87481201  0.60067970    -0.79400
C1750       C  0.74374308  0.82300296  0.73174211     0.82800
C1751       C  0.69911253  0.91235987  0.73672862     0.83200
O1752       O  0.72679843  0.91363086  0.72332810    -0.81800
C1753       C  0.92526834  0.70446310  0.82663448    -0.06900
C1754       C  0.94949457  0.71246670  0.85485125    -0.18000
C1755       C  0.98558895  0.72519844  0.84800244     0.10300
C1756       C  0.99798288  0.72985385  0.81202532    -0.06800
C1757       C  0.97417196  0.72406044  0.78399071    -0.18100
C1758       C  0.93804418  0.71110860  0.79067270     0.10300
S1759       S  0.01440831  0.73487249  0.88637264    -0.33000
S1760       S  0.91034408  0.70207953  0.75130996    -0.33000
H1761       H  0.87699232  0.68675116  0.76796048     0.28300
H1762       H  0.54488607  0.76201856  0.86941190     0.28300
H1763       H  0.94006967  0.70811499  0.88240860     0.18900
H1764       H  0.98330848  0.72736257  0.75636054     0.18900
C1765       C  0.70368733  0.61680074  0.87360969    -0.06900
C1766       C  0.71116480  0.61730677  0.83668973    -0.18000
C1767       C  0.74549968  0.62785231  0.82415406     0.10300
C1768       C  0.77351148  0.63832785  0.84920937    -0.06800
C1769       C  0.76555637  0.63579046  0.88616457    -0.18100
C1770       C  0.73134087  0.62574956  0.89859494     0.10300
S1771       S  0.75093067  0.62773626  0.77600655    -0.33000
S1772       S  0.72562136  0.62806251  0.94635124    -0.33000
H1773       H  0.70510746  0.64476457  0.94331704     0.28300
H1774       H  0.78759702  0.64111630  0.77515403     0.28300
H1775       H  0.69012346  0.61046070  0.81723596     0.18900
H1776       H  0.78671797  0.64344877  0.90562711     0.18900
C1777       C  0.58802359  0.69489546  0.83008411    -0.06900
C1778       C  0.56480868  0.65828632  0.83338070    -0.18000
C1779       C  0.57697661  0.63594160  0.84578816     0.10300
C1780       C  0.61295450  0.65065391  0.85613386    -0.06800
C1781       C  0.63616192  0.68728603  0.85284057    -0.18100
C1782       C  0.62402406  0.70960968  0.84027663     0.10300
S1783       S  0.54573262  0.58878327  0.84607254    -0.33000
S1784       S  0.65541373  0.75673192  0.83921550    -0.33000
H1785       H  0.63033621  0.76745925  0.84631794     0.28300
H1786       H  0.57099881  0.57839961  0.83856672     0.28300
H1787       H  0.53741854  0.64681813  0.82466361     0.18900
H1788       H  0.66356679  0.69876990  0.86149155     0.18900
C1789       C  0.94115290  0.81630561  0.87568273    -0.06900
C1790       C  0.93191575  0.81045861  0.83909069    -0.18000
C1791       C  0.90800586  0.77652770  0.82566959     0.10300
C1792       C  0.89291531  0.74705699  0.84942731    -0.06800
C1793       C  0.90146699  0.75322437  0.88626274    -0.18100
C1794       C  0.92520055  0.78724756  0.89959497     0.10300
S1795       S  0.89980160  0.77374800  0.77794443    -0.33000
S1796       S  0.93571222  0.79126614  0.94689083    -0.33000
H1797       H  0.97219693  0.81549838  0.94275698     0.28300
H1798       H  0.87474945  0.73775689  0.77645115     0.28300
H1799       H  0.94438254  0.83257713  0.82047093     0.18900
H1800       H  0.89052784  0.73092716  0.90471309     0.18900
C1801       C  0.75812669  0.52329168  0.81108322    -0.06900
C1802       C  0.76667072  0.53352630  0.84737262    -0.18000
C1803       C  0.79057298  0.56903099  0.85698808     0.10300
C1804       C  0.80615357  0.59491717  0.82981552    -0.06800
C1805       C  0.79873774  0.58436530  0.79366870    -0.18100
C1806       C  0.77476258  0.54924748  0.78401453     0.10300
S1807       S  0.80040885  0.58122952  0.90374377    -0.33000
S1808       S  0.76414856  0.54029296  0.73691732    -0.33000
H1809       H  0.72717399  0.52049622  0.74235443     0.28300
H1810       H  0.77882600  0.54699140  0.91800980     0.28300
H1811       H  0.75385736  0.51373059  0.86822939     0.18900
H1812       H  0.81039194  0.60403865  0.77258239     0.18900
C1813       C  0.56628422  0.90610797  0.85909258    -0.06900
C1814       C  0.57834034  0.88192609  0.85402815    -0.18000
C1815       C  0.61271650  0.89329638  0.84153657     0.10300
C1816       C  0.63549187  0.92966612  0.83332138    -0.06800
C1817       C  0.62337378  0.95379134  0.83835927    -0.18100
C1818       C  0.58893717  0.94238608  0.85049334     0.10300
S1819       S  0.62625196  0.86029704  0.83805195    -0.33000
S1820       S  0.57496026  0.97513979  0.85238098    -0.33000
H1821       H  0.53940600  0.95147161  0.84287586     0.28300
H1822       H  0.66216540  0.88366047  0.84646188     0.28300
H1823       H  0.56134834  0.85419370  0.86116603     0.18900
H1824       H  0.64024993  0.98150222  0.83104216     0.18900
C1825       C  0.88299008  0.62875334  0.84709134    -0.06900
C1826       C  0.88995549  0.62693568  0.88380428    -0.18000
C1827       C  0.90073487  0.60331976  0.89646730     0.10300
C1828       C  0.90562697  0.58136252  0.87181061    -0.06800
C1829       C  0.90143383  0.58536039  0.83489100    -0.18100
C1830       C  0.89021384  0.60850016  0.82222503     0.10300
S1831       S  0.90491970  0.60056593  0.94440287    -0.33000
S1832       S  0.88574986  0.60991758  0.77414560    -0.33000
H1833       H  0.87055718  0.63147892  0.77373915     0.28300
H1834       H  0.88560504  0.56319080  0.94545225     0.28300
H1835       H  0.88496508  0.64268116  0.90307815     0.18900
H1836       H  0.90587411  0.56928587  0.81556021     0.18900
C1837       C  0.79406017  0.76266264  0.80691141    -0.06900
C1838       C  0.79927115  0.75854033  0.84365004    -0.18000
C1839       C  0.81006580  0.73466183  0.85531528     0.10300
C1840       C  0.81590249  0.71417762  0.82958571    -0.06800
C1841       C  0.80806400  0.71639329  0.79330361    -0.18100
C1842       C  0.79773665  0.74049258  0.78162543     0.10300
S1843       S  0.81645447  0.73270646  0.90308678    -0.33000
S1844       S  0.79354844  0.74415129  0.73381322    -0.33000
H1845       H  0.81485880  0.78142438  0.73324975     0.28300
H1846       H  0.82516502  0.70573029  0.90284377     0.28300
H1847       H  0.79605566  0.77504382  0.86347351     0.18900
H1848       H  0.81281552  0.70118584  0.77323132     0.18900
C1849       C  0.83219736  0.88895501  0.82221033    -0.06900
C1850       C  0.84396765  0.92023896  0.80195850    -0.18000
C1851       C  0.86448121  0.95380883  0.81738039     0.10300
C1852       C  0.87286171  0.95654376  0.85435581    -0.06800
C1853       C  0.86148244  0.92527904  0.87451061    -0.18100
C1854       C  0.84113796  0.89170924  0.85908415     0.10300
S1855       S  0.88064469  0.99168258  0.78785058    -0.33000
S1856       S  0.82600714  0.85393104  0.88861271    -0.33000
H1857       H  0.79094182  0.83667630  0.87545588     0.28300
H1858       H  0.91486370  0.50967578  0.80309947     0.28300
H1859       H  0.83783845  0.91858764  0.77349568     0.18900
H1860       H  0.86763365  0.92693546  0.90296629     0.18900
C1861       C  0.95961605  0.59775969  0.47251678    -0.06900
C1862       C  0.47446821  0.58473945  0.44752899    -0.18000
C1863       C  0.48557018  0.56075370  0.45786275     0.10300
C1864       C  0.98186810  0.54940687  0.49416771    -0.06800
C1865       C  0.96544210  0.56110578  0.51877793    -0.18100
C1866       C  0.95411813  0.58488795  0.50830848     0.10300
S1867       S  0.50609604  0.54737864  0.42362846    -0.33000
S1868       S  0.93316249  0.59817623  0.54199340    -0.33000
H1869       H  0.91233656  0.60493042  0.51779719     0.28300
H1870       H  0.49973182  0.51538318  0.43943946     0.28300
H1871       H  0.47904070  0.59463089  0.42016432     0.18900
H1872       H  0.96202623  0.55224581  0.54643235     0.18900
C1873       C  0.56524883  0.91227287  0.54589747    -0.06900
C1874       C  0.55860035  0.93137636  0.57203436    -0.18000
C1875       C  0.54742783  0.95545733  0.56250534     0.10300
C1876       C  0.54311715  0.96107988  0.52557972    -0.06800
C1877       C  0.55218333  0.94377841  0.49936637    -0.18100
C1878       C  0.56346279  0.91977357  0.50909030     0.10300
S1879       S  0.53780415  0.97624485  0.59960740    -0.33000
S1880       S  0.57515984  0.89948801  0.47327285    -0.33000
H1881       H  0.59933910  0.89409925  0.49368540     0.28300
H1882       H  0.52389319  0.99397971  0.58020225     0.28300
H1883       H  0.55991403  0.92582553  0.60024800     0.18900
H1884       H  0.54980725  0.94850837  0.47113341     0.18900
C1885       C  0.99172431  0.72199269  0.49246001    -0.06900
C1886       C  0.49340723  0.72093056  0.53006635    -0.18000
C1887       C  0.50908883  0.75222036  0.55036562     0.10300
C1888       C  0.52441698  0.78547824  0.53263638    -0.06800
C1889       C  0.52237615  0.78647878  0.49510189    -0.18100
C1890       C  0.00670078  0.75530172  0.47482982     0.10300
S1891       S  0.50703162  0.74779631  0.59870658    -0.33000
S1892       S  0.00864779  0.76017088  0.42652243    -0.33000
H1893       H  0.01417838  0.73139677  0.41985927     0.28300
H1894       H  0.50380634  0.77799634  0.60516342     0.28300
H1895       H  0.48122992  0.69548630  0.54384530     0.18900
H1896       H  0.53463655  0.81187807  0.48121759     0.18900
C1897       C  0.96863878  0.92984995  0.49925802    -0.06900
C1898       C  0.96805984  0.92271801  0.46220282    -0.18000
C1899       C  0.94380675  0.88940370  0.44766209     0.10300
C1900       C  0.92025801  0.86189194  0.47079566    -0.06800
C1901       C  0.92305128  0.86831391  0.50813302    -0.18100
C1902       C  0.94658609  0.90173946  0.52260870     0.10300
S1903       S  0.94222777  0.88490020  0.39941708    -0.33000
S1904       S  0.94618560  0.90587245  0.57086237    -0.33000
H1905       H  0.96751926  0.94267061  0.57299739     0.28300
H1906       H  0.90491690  0.86687289  0.39728280     0.28300
H1907       H  0.98509535  0.94407574  0.44412772     0.18900
H1908       H  0.90565271  0.84723951  0.52632337     0.18900
C1909       C  0.55588720  0.58092375  0.52001936    -0.06900
C1910       C  0.57866634  0.60425028  0.49375832    -0.18000
C1911       C  0.60388897  0.63951827  0.50230894     0.10300
C1912       C  0.60701427  0.65165763  0.53832788    -0.06800
C1913       C  0.58207156  0.62927696  0.56371577    -0.18100
C1914       C  0.55650772  0.59425999  0.55515120     0.10300
S1915       S  0.63122136  0.66871369  0.46668064    -0.33000
S1916       S  0.52795567  0.56835011  0.59187773    -0.33000
H1917       H  0.00719080  0.53614046  0.57434488     0.28300
H1918       H  0.61616148  0.64429540  0.43819329     0.28300
H1919       H  0.57728551  0.59437036  0.46669401     0.18900
H1920       H  0.58376869  0.63844694  0.59118423     0.18900
C1921       C  0.79624706  0.77042374  0.48659259    -0.06900
C1922       C  0.79778805  0.77422982  0.52412176    -0.18000
C1923       C  0.76676900  0.75876075  0.54490086     0.10300
C1924       C  0.73348232  0.73945369  0.52753499    -0.06800
C1925       C  0.73213187  0.73537531  0.49007455    -0.18100
C1926       C  0.76293603  0.75094925  0.46940737     0.10300
S1927       S  0.77027117  0.76224359  0.59342205    -0.33000
S1928       S  0.75757189  0.74642246  0.42119138    -0.33000
H1929       H  0.78577456  0.78074180  0.41347926     0.28300
H1930       H  0.80758333  0.78200169  0.59537669     0.28300
H1931       H  0.82349211  0.78853554  0.53722483     0.18900
H1932       H  0.70671493  0.72126122  0.47646566     0.18900
C1933       C  0.65485143  0.55567210  0.46857252    -0.06900
C1934       C  0.65049296  0.55937142  0.50555616    -0.18000
C1935       C  0.61716667  0.54953119  0.52052381     0.10300
C1936       C  0.58691734  0.53532520  0.49799719    -0.06800
C1937       C  0.59152511  0.53297744  0.46075924    -0.18100
C1938       C  0.62484429  0.54247353  0.44593365     0.10300
S1939       S  0.61573586  0.55476302  0.56850048    -0.33000
S1940       S  0.62671016  0.53459062  0.39857156    -0.33000
H1941       H  0.65143696  0.52282233  0.40164123     0.28300
H1942       H  0.58081921  0.54786490  0.57077482     0.28300
H1943       H  0.67332047  0.56906680  0.52327847     0.18900
H1944       H  0.56848675  0.52208939  0.44321192     0.18900
C1945       C  0.93653730  0.97477153  0.51854597    -0.06900
C1946       C  0.92793241  0.47541373  0.55489562    -0.18000
C1947       C  0.89341434  0.96577542  0.56562833     0.10300
C1948       C  0.86627465  0.95438989  0.53959930    -0.06800
C1949       C  0.87467956  0.95299290  0.50321756    -0.18100
C1950       C  0.90954353  0.96319502  0.49243235     0.10300
S1951       S  0.88657807  0.47170452  0.61238482    -0.33000
S1952       S  0.91964310  0.96295352  0.44539550    -0.33000
H1953       H  0.88462252  0.94835624  0.43262634     0.28300
H1954       H  0.86497685  0.48672421  0.60568589     0.28300
H1955       H  0.94870269  0.48519530  0.57499046     0.18900
H1956       H  0.85400305  0.94477306  0.48316997     0.18900
C1957       C  0.74597827  0.52247474  0.48424174    -0.06900
C1958       C  0.76228623  0.50755770  0.46349904    -0.18000
C1959       C  0.77442775  0.98639999  0.47922180     0.10300
C1960       C  0.77078980  0.98052808  0.51670449    -0.06800
C1961       C  0.75452096  0.99551198  0.53738860    -0.18100
C1962       C  0.74262730  0.51682582  0.52174064     0.10300
S1963       S  0.79265807  0.96648146  0.44981166    -0.33000
S1964       S  0.72570845  0.53779732  0.55143802    -0.33000
H1965       H  0.74119481  0.57027305  0.53266739     0.28300
H1966       H  0.77856382  0.93428307  0.46892179     0.28300
H1967       H  0.76478397  0.51168345  0.43460258     0.18900
H1968       H  0.75223565  0.99168587  0.56631383     0.18900
C1969       C  0.82361470  0.88839743  0.13562526    -0.06900
C1970       C  0.82006795  0.89693853  0.17131065    -0.18000
C1971       C  0.78671580  0.88843206  0.18560988     0.10300
C1972       C  0.75617335  0.87082928  0.16376038    -0.06800
C1973       C  0.76015152  0.86413138  0.12752516    -0.18100
C1974       C  0.79320933  0.87196715  0.11349836     0.10300
S1975       S  0.78347438  0.89891458  0.23187147    -0.33000
S1976       S  0.79427877  0.85787361  0.06808758    -0.33000
H1977       H  0.81986540  0.84769603  0.07438045     0.28300
H1978       H  0.82018340  0.91828595  0.23889515     0.28300
H1979       H  0.84341651  0.90917857  0.18834296     0.18900
H1980       H  0.73679595  0.85066105  0.11056666     0.18900
C1981       C  0.53229056  0.77921172  0.20193147    -0.06900
C1982       C  0.55626062  0.78864642  0.23054180    -0.18000
C1983       C  0.59258043  0.80254503  0.22454459     0.10300
C1984       C  0.60546801  0.80585834  0.18886457    -0.06800
C1985       C  0.58134993  0.79503354  0.16018809    -0.18100
C1986       C  0.54505036  0.78205249  0.16624310     0.10300
S1987       S  0.62054236  0.81788846  0.26400251    -0.33000
S1988       S  0.51678110  0.77049286  0.12714740    -0.33000
H1989       H  0.98523608  0.74592906  0.14456317     0.28300
H1990       H  0.65222669  0.82385020  0.24830175     0.28300
H1991       H  0.54698973  0.78754386  0.25785443     0.18900
H1992       H  0.59103925  0.79760994  0.13284938     0.18900
C1993       C  0.91231232  0.85020270  0.14694611    -0.06900
C1994       C  0.94930465  0.86490325  0.15038044    -0.18000
C1995       C  0.96387064  0.84643739  0.16720463     0.10300
C1996       C  0.94104220  0.81204266  0.18082881    -0.06800
C1997       C  0.90408568  0.79698532  0.17675615    -0.18100
C1998       C  0.88952278  0.81534047  0.15950667     0.10300
S1999       S  0.51154382  0.86929852  0.17207209    -0.33000
S2000       S  0.84205237  0.79201779  0.15293942    -0.33000
H2001       H  0.84370727  0.80481915  0.11778586     0.28300
H2002       H  0.51078300  0.85951198  0.20829671     0.28300
H2003       H  0.96721380  0.89161495  0.14088870     0.18900
H2004       H  0.88633781  0.77032364  0.18651116     0.18900
C2005       C  0.72366669  0.91529397  0.18565174    -0.06900
C2006       C  0.74313823  0.93882594  0.15794452    -0.18000
C2007       C  0.76563753  0.97510226  0.16495213     0.10300
C2008       C  0.76994961  0.98810314  0.20075653    -0.06800
C2009       C  0.74835661  0.96497678  0.22782750    -0.18100
C2010       C  0.72520669  0.92885748  0.22064263     0.10300
S2011       S  0.78792270  0.50342135  0.12699132    -0.33000
S2012       S  0.70033315  0.89974665  0.25724703    -0.33000
H2013       H  0.70860299  0.92633088  0.28322108     0.28300
H2014       H  0.78989828  0.53406931  0.14214778     0.28300
H2015       H  0.74110036  0.92880091  0.13081348     0.18900
H2016       H  0.75151136  0.97463978  0.25521480     0.18900
C2017       C  0.58937162  0.69469412  0.14141900    -0.06900
C2018       C  0.59381304  0.70115965  0.17868327    -0.18000
C2019       C  0.61811706  0.73465825  0.19267162     0.10300
C2020       C  0.63877996  0.76306113  0.16892730    -0.06800
C2021       C  0.63566228  0.75612779  0.13168451    -0.18100
C2022       C  0.61108944  0.72261501  0.11771539     0.10300
S2023       S  0.62013908  0.73889826  0.24088062    -0.33000
S2024       S  0.60650390  0.71828332  0.06953445    -0.33000
H2025       H  0.56913310  0.69883233  0.06977694     0.28300
H2026       H  0.65283096  0.77018803  0.24199518     0.28300
H2027       H  0.57738749  0.67995696  0.19723984     0.18900
H2028       H  0.65114408  0.77771755  0.11314496     0.18900
C2029       C  0.96338783  0.60445842  0.15385253    -0.06900
C2030       C  0.94085546  0.56740404  0.15653282    -0.18000
C2031       C  0.90787584  0.55274662  0.17356569     0.10300
C2032       C  0.89664572  0.57558458  0.18792054    -0.06800
C2033       C  0.91901498  0.61257543  0.18507381    -0.18100
C2034       C  0.95188854  0.62722895  0.16791780     0.10300
S2035       S  0.88254114  0.50496581  0.17760605    -0.33000
S2036       S  0.97666956  0.67493230  0.16345590    -0.33000
H2037       H  0.98629089  0.67443212  0.12737922     0.28300
H2038       H  0.87164475  0.50508974  0.21324414     0.28300
H2039       H  0.94936585  0.54954021  0.14611980     0.18900
H2040       H  0.91042481  0.63036790  0.19553589     0.18900
C2041       C  0.71566069  0.79667463  0.18775043    -0.06900
C2042       C  0.72191983  0.78025312  0.15847633    -0.18000
C2043       C  0.73609686  0.75776517  0.16344017     0.10300
C2044       C  0.74296774  0.75035849  0.19868970    -0.06800
C2045       C  0.73908336  0.76882235  0.22765803    -0.18100
C2046       C  0.72597080  0.79212285  0.22269977     0.10300
S2047       S  0.74625984  0.73970864  0.12445061    -0.33000
S2048       S  0.72208444  0.81348683  0.26286114    -0.33000
H2049       H  0.71149310  0.83584655  0.24698417     0.28300
H2050       H  0.73891407  0.75861705  0.09835050     0.28300
H2051       H  0.71525158  0.78482700  0.13167596     0.18900
H2052       H  0.74474737  0.76384227  0.25476906     0.18900
C2053       C  0.62640553  0.92906948  0.14231868    -0.06900
C2054       C  0.63935285  0.91426192  0.11720873    -0.18000
C2055       C  0.65010641  0.89010488  0.12781378     0.10300
C2056       C  0.64840919  0.88068249  0.16456239    -0.06800
C2057       C  0.63350608  0.89382093  0.18935582    -0.18100
C2058       C  0.62224184  0.91760586  0.17859319     0.10300
S2059       S  0.66782203  0.87395262  0.09339212    -0.33000
S2060       S  0.60307523  0.93257120  0.21252292    -0.33000
H2061       H  0.58322831  0.94102156  0.18872581     0.28300
H2062       H  0.65718239  0.84080147  0.10927276     0.28300
H2063       H  0.64274565  0.92288384  0.08938511     0.18900
H2064       H  0.63147257  0.88623093  0.21741514     0.18900
C2065       C  0.66699522  0.55653337  0.15277163    -0.06900
C2066       C  0.68614502  0.58554220  0.12957123    -0.18000
C2067       C  0.70790931  0.61981880  0.14303753     0.10300
C2068       C  0.70972719  0.62540126  0.18053441    -0.06800
C2069       C  0.69049474  0.59633168  0.20361630    -0.18100
C2070       C  0.66893289  0.56215634  0.19019292     0.10300
S2071       S  0.73393658  0.65444298  0.11115982    -0.33000
S2072       S  0.64305152  0.52750457  0.22208418    -0.33000
H2073       H  0.61244902  0.51067566  0.20041822     0.28300
H2074       H  0.76336287  0.67353238  0.13391706     0.28300
H2075       H  0.68470421  0.58129533  0.10071755     0.18900
H2076       H  0.69162538  0.60042854  0.23249092     0.18900
loop_ 
_geom_bond_atom_site_label_1 
_geom_bond_atom_site_label_2 
_geom_bond_distance 
_geom_bond_site_symmetry_2 
_ccdc_geom_bond_type 
C1            N2   1.361       .  A
C1            N6   1.370       .  A
C1          C496   1.482       .  S
N2          C522   1.357       .  A
C3            N4   1.346       .  A
C3          N521   1.357   1_545  A
C3          C508   1.466       .  S
N4          C524   1.348   1_545  A
C5            N6   1.365       .  A
C5          N523   1.348       .  A
C5          C166   1.460       .  S
C7            N8   1.372       .  A
C7           N12   1.364       .  A
C7          C487   1.486       .  S
N8            C9   1.363       .  A
C9           N10   1.348       .  A
C9           C64   1.468       .  S
N10          C11   1.344       .  A
C11          N12   1.355       .  A
C11         C511   1.468       .  S
C13          N14   1.360       .  A
C13          N18   1.372       .  A
C13         C460   1.489       .  S
N14        C1053   1.354   1_455  A
C15          N16   1.347       .  A
C15        N1052   1.354       .  A
C15         C472   1.476       .  S
N16        C1055   1.349       .  A
C17          N18   1.368       .  A
C17        N1054   1.349       .  A
C17         C151   1.465       .  S
C19          N20   1.373       .  A
C19          N24   1.359       .  A
C19         C970   1.486   1_545  S
N20          C21   1.367       .  A
C21          N22   1.350       .  A
C21          C63   1.472       .  S
N22          C23   1.345       .  A
C23          N24   1.352       .  A
C23         C475   1.471       .  S
C25        N1064   1.358       .  A
C25        N1068   1.371       .  A
C25         C424   1.480   1_655  S
N26          C27   1.353       .  A
N26        C1063   1.358       .  A
C27          N28   1.348       .  A
C27         C439   1.473       .  S
N28          C29   1.352       .  A
C29          N30   1.364       .  A
C29          C61   1.472       .  S
N30        C1063   1.371       .  A
C31          N32   1.361       .  A
C31          N36   1.370       .  A
C31         C412   1.479       .  S
N32          C33   1.356       .  A
C33          N34   1.347       .  A
C33         C436   1.476       .  S
N34          C35   1.347       .  A
C35          N36   1.366       .  A
C35         C165   1.461       .  S
C37         C427   1.486       .  S
C37          C38   1.414       .  A
C37          C42   1.416       .  A
C38         C499   1.492       .  S
C38          C39   1.413       .  A
C39         C448   1.490       .  S
C39          C40   1.415       .  A
C40         C415   1.496       .  S
C40          C41   1.418       .  A
C41         C484   1.488       .  S
C41          C42   1.418       .  A
C42         C463   1.500       .  S
O43          C59   1.273       .  A
O43         Zn49   2.002       .  S
C44          C88   1.462       .  S
C44          O60   1.273       .  A
C44          O57   1.274       .  A
O45          C58   1.275       .  A
O45         Cd52   2.100       .  S
O46          C64   1.275       .  A
O46         Cd55   2.095       .  S
O47          C61   1.277       .  A
O47         Cd51   2.109       .  S
O48          C59   1.275       .  A
O48         Cd51   2.097       .  S
Zn49         O60   2.001       .  S
Zn49         O62   2.011       .  S
Zn49         O54   1.909       .  S
O50          C61   1.273       .  A
O50         Cd55   2.041       .  S
Cd51         O53   2.049       .  S
Cd51         O54   2.015       .  S
Cd52         O56   2.102       .  S
Cd52         O65   2.043       .  S
Cd52         O54   2.017       .  S
O53          C63   1.275       .  A
O54         Cd55   2.017       .  S
Cd55         O57   2.091       .  S
O56          C63   1.276       .  A
C58          C74   1.468       .  S
C58          O62   1.274       .  A
C59          C98   1.464       .  S
C64          O65   1.275       .  A
C66          N67   1.370       .  A
C66          N71   1.358       .  A
C66         C391   1.481       .  S
N67          C68   1.365       .  A
C68          N69   1.350       .  A
C68         C188   1.463       .  S
N69          C70   1.349       .  A
C70          N71   1.354       .  A
C70         C403   1.468       .  S
C72          N73   1.373       .  A
C72          N77   1.357       .  A
C72         C376   1.485       .  S
N73          C74   1.370       .  A
C74          N75   1.350       .  A
N75          C76   1.346       .  A
C76          N77   1.352       .  A
C76         C400   1.467       .  S
C78          N79   1.357       .  A
C78          N83   1.370       .  A
C78         C355   1.488       .  S
N79          C80   1.353       .  A
C80          N81   1.348       .  A
C80         C367   1.470       .  S
N81          C82   1.350       .  A
C82          N83   1.366       .  A
C82         C189   1.461       .  S
C84          N85   1.359       .  A
C84          N89   1.372       .  A
C84         C343   1.487       .  S
N85          C86   1.351       .  A
C86          N87   1.345       .  A
C86         C364   1.466       .  S
N87          C88   1.349       .  A
C88          N89   1.368       .  A
C90          N91   1.369       .  A
C90          N95   1.358       .  A
C90         C316   1.482       .  S
N91          C92   1.366       .  A
C92          N93   1.351       .  A
C92         C174   1.463       .  S
N93          C94   1.349       .  A
C94          N95   1.355       .  A
C94         C331   1.471       .  S
C96          N97   1.370       .  A
C96         N101   1.361       .  A
C96         C304   1.481       .  S
N97          C98   1.366       .  A
C98          N99   1.349       .  A
N99         C100   1.348       .  A
C100        N101   1.356       .  A
C100        C328   1.471       .  S
C102        C388   1.490       .  S
C102        C103   1.417       .  A
C102       C1664   1.413       .  A
C103        C340   1.491       .  S
C103       C1142   1.416       .  A
C104        C319   1.491       .  S
C104       C1141   1.416   1_455  A
C104        C624   1.415       .  A
C105        C379   1.496       .  S
C105        C106   1.416       .  A
C105        C623   1.415   1_545  A
C106        C352   1.489       .  S
C106        C107   1.413   1_455  A
C107       C1345   1.491       .  S
C107       C1659   1.413   1_545  A
C108        N109   1.371       .  A
C108        N113   1.359       .  A
C108        C280   1.485       .  S
N109        C110   1.367       .  A
C110        N111   1.352       .  A
C110        C193   1.473       .  S
N111        C112   1.348       .  A
C112        N113   1.352       .  A
C112        C292   1.477       .  S
C114        N115   1.362       .  A
C114        N119   1.372       .  A
C114        C271   1.488       .  S
N115        C635   1.353   1_545  A
C116        N117   1.344       .  A
C116        N634   1.353       .  A
C116        C295   1.476       .  S
N117        C637   1.351       .  A
C118        N119   1.367       .  A
C118        N636   1.351   1_545  A
C118        C171   1.470       .  S
C120        N121   1.372       .  A
C120        N125   1.361       .  A
C120        C763   1.484       .  S
N121        C122   1.365       .  A
C122        N123   1.352       .  A
C122        C194   1.472       .  S
N123        C124   1.346       .  A
C124        N125   1.354       .  A
C124        C259   1.470       .  S
C126        N131   1.373       .  A
C126       N1165   1.361       .  A
C126        C232   1.483       .  S
N127        C128   1.353       .  A
N127       C1164   1.361   1_455  A
C128        N129   1.345       .  A
C128        C256   1.470       .  S
N129       C1168   1.351   1_455  A
C130        N131   1.368       .  A
C130       N1167   1.351       .  A
C130       C1208   1.474       .  S
C132        N133   1.374       .  A
C132        N137   1.360       .  A
C132        C208   1.485       .  S
N133        C134   1.368       .  A
C134        N135   1.351       .  A
C134        C168   1.473       .  S
N135        C136   1.344       .  A
C136        N137   1.352       .  A
C136        C223   1.466       .  S
C138        N139   1.360       .  A
C138        N143   1.371       .  A
C138       C1237   1.482   1_455  S
N139        C140   1.353       .  A
C140        N141   1.345       .  A
C140        C220   1.464       .  S
N141        C142   1.350       .  A
C142        N143   1.365       .  A
C142        C191   1.468       .  S
C144        C211   1.496       .  S
C144        C145   1.420       .  A
C144        C149   1.419       .  A
C145        C283   1.492       .  S
C145        C146   1.419       .  A
C146        C235   1.500       .  S
C146        C147   1.417       .  A
C147        C196   1.488       .  S
C147        C148   1.417       .  A
C148        C268   1.497       .  S
C148        C149   1.417       .  A
C149        C247   1.492       .  S
O150        C685   1.273       .  A
O150       Zn156   2.006   1_565  S
C151        O167   1.274       .  A
C151        O164   1.274       .  A
O152        C165   1.273       .  A
O152       Cd159   2.084   1_554  S
O153        C171   1.276       .  A
O153      Cd1200   2.107       .  S
O154        C168   1.276       .  A
O154       Cd158   2.108   1_545  S
O155        C166   1.274       .  A
O155       Cd677   2.085   1_554  S
Zn156       O167   2.010       .  S
Zn156      O1726   2.012   1_445  S
Zn156       O161   1.917       .  S
O157        C168   1.275       .  A
O157       Cd162   2.048       .  S
Cd158       O674   2.085   1_556  S
Cd158       O679   2.051       .  S
Cd158       O161   2.015   1_566  S
Cd159       O163   2.107       .  S
Cd159       O172   2.038       .  S
Cd159      O1718   2.013   1_556  S
O160        C170   1.275       .  A
O160       Cd677   2.051       .  S
O161       Cd162   2.017   1_554  S
O161      Cd1716   2.013   1_444  S
Cd162       O164   2.095   1_556  S
Cd162      O1191   2.107   1_455  S
O163       C1208   1.276       .  A
C165        O169   1.274       .  A
C166        O669   1.273       .  A
O169      Zn1713   2.012       .  S
C170       C1168   1.474   1_455  S
C170       O1201   1.276   1_455  A
C171        O691   1.274   1_545  A
O172        C690   1.274       .  A
O173        C189   1.271       .  A
O173       Zn179   2.000       .  S
C174        O190   1.271       .  A
C174        O187   1.274       .  A
O175        C188   1.276       .  A
O175       Cd182   2.100       .  S
O176        C194   1.274       .  A
O176       Cd185   2.041       .  S
O177        C191   1.275       .  A
O177       Cd181   2.050       .  S
O178        C189   1.275       .  A
O178       Cd181   2.092       .  S
Zn179       O190   1.999       .  S
Zn179       O192   1.992       .  S
Zn179       O184   1.912       .  S
O180        C191   1.275       .  A
O180       Cd185   2.092       .  S
Cd181       O183   2.101       .  S
Cd181       O184   2.013       .  S
Cd182       O186   2.054       .  S
Cd182       O195   2.110       .  S
Cd182       O184   2.019       .  S
O183        C193   1.276       .  A
O184       Cd185   2.012       .  S
Cd185       O187   2.094       .  S
O186        C193   1.276       .  A
C188        O192   1.272       .  A
C194        O195   1.277       .  A
C196        C197   1.401       .  A
C196        C201   1.420       .  A
C197        C198   1.401       .  A
C197        H206   1.084       .  S
C198        C199   1.417       .  A
C198        S202   1.803       .  S
C199       C1176   1.482       .  S
C199        C200   1.400       .  A
C200        C201   1.400       .  A
C200        H207   1.084       .  S
C201        S203   1.808       .  S
S202       H1243   1.407       .  S
S203        H204   1.400       .  S
H205       S1240   1.407       .  S
C208        C209   1.407       .  A
C208        C213   1.411       .  A
C209        C210   1.403       .  A
C209        H218   1.084       .  S
C210        C211   1.415       .  A
C210        S214   1.805       .  S
C211        C212   1.407       .  A
C212        C213   1.402       .  A
C212        H219   1.083       .  S
C213        S215   1.801       .  S
S214        H217   1.397       .  S
S215        H216   1.407       .  S
C220        C221   1.399       .  A
C220        C225   1.414       .  A
C221        C222   1.395       .  A
C221        H230   1.084       .  S
C222        C223   1.415       .  A
C222        S226   1.805       .  S
C223        C224   1.400       .  A
C224        C225   1.395       .  A
C224        H231   1.084       .  S
C225        S227   1.805       .  S
S226        H229   1.407       .  S
S227        H228   1.407       .  S
C232        C233   1.404       .  A
C232        C237   1.410       .  A
C233        C234   1.403       .  A
C233        H242   1.084       .  S
C234        C235   1.417       .  A
C234        S238   1.801       .  S
C235        C236   1.408       .  A
C236        C237   1.403       .  A
C236        H243   1.083       .  S
C237        S239   1.802       .  S
S238        H241   1.389       .  S
S239        H240   1.406       .  S
C244        C639   1.484   1_545  S
C244        C245   1.410       .  A
C244        C249   1.411       .  A
C245        C246   1.408       .  A
C245        H254   1.083       .  S
C246        C247   1.408       .  A
C246        S250   1.804       .  S
C247        C248   1.404       .  A
C248        C249   1.397       .  A
C248        H255   1.081       .  S
C249        S251   1.802       .  S
S250        H253   1.406       .  S
S251        H252   1.407       .  S
C256        C257   1.401       .  A
C256        C261   1.415       .  A
C257        C258   1.397       .  A
C257        H266   1.085       .  S
C258        C259   1.416       .  A
C258        S262   1.805       .  S
C259        C260   1.400       .  A
C260        C261   1.395       .  A
C260        H267   1.085       .  S
C261        S263   1.805       .  S
S262        H265   1.407       .  S
S263        H264   1.407       .  S
C268        C269   1.408       .  A
C268        C273   1.414       .  A
C269        C270   1.405       .  A
C269        H278   1.084       .  S
C270        C271   1.413       .  A
C270        S274   1.801       .  S
C271        C272   1.406       .  A
C272        C273   1.400       .  A
C272        H279   1.083       .  S
C273        S275   1.801       .  S
S274        H277   1.407       .  S
S275        H276   1.389       .  S
C280        C281   1.410       .  A
C280        C285   1.410       .  A
C281        C282   1.403       .  A
C281        H290   1.084       .  S
C282        C283   1.412       .  A
C282        S286   1.805       .  S
C283        C284   1.406       .  A
C284        C285   1.398       .  A
C284        H291   1.082       .  S
C285        S287   1.801       .  S
S286        H289   1.399       .  S
S287        H288   1.407       .  S
C292        C293   1.407       .  A
C292        C297   1.413       .  A
C293        C294   1.396       .  A
C293        H302   1.084       .  S
C294        C295   1.411       .  A
C294        S298   1.802       .  S
C295        C296   1.406       .  A
C296        C297   1.395       .  A
C296        H303   1.085       .  S
C297        S299   1.803       .  S
S298        H820   1.407       .  S
S299        H300   1.407       .  S
H301        S817   1.407   1_545  S
C304        C309   1.416       .  A
C304       C1343   1.401       .  A
C305        C306   1.403       .  A
C305       C1342   1.401       .  A
C305        H314   1.083       .  S
C306       C1345   1.418       .  A
C306        S310   1.807   1_655  S
C307       C1145   1.491       .  S
C307        C308   1.402       .  A
C307       C1344   1.418       .  A
C308        C309   1.403       .  A
C308        H315   1.081       .  S
C309        S311   1.803       .  S
S310        H313   1.403   1_455  S
S311        H312   1.407       .  S
C316        C317   1.398       .  A
C316        C321   1.417       .  A
C317        C318   1.401       .  A
C317        H326   1.084       .  S
C318        C319   1.422       .  A
C318        S322   1.807       .  S
C319        C320   1.401       .  A
C320        C321   1.403       .  A
C320        H327   1.084       .  S
C321        S323   1.803       .  S
S322        H325   1.394       .  S
S323        H324   1.407       .  S
C328        C333   1.416       .  A
C328       C1367   1.401       .  A
C329        C330   1.398   1_655  A
C329       C1366   1.401       .  A
C329        H338   1.086       .  S
C330        C331   1.415       .  A
C330        S334   1.804       .  S
C331        C332   1.400       .  A
C332       C1371   1.394       .  A
C332        H339   1.086       .  S
C333       C1370   1.394       .  A
C333        S335   1.804       .  S
S334        H337   1.407       .  S
S335        H336   1.407       .  S
C340        C341   1.409       .  A
C340        C345   1.412       .  A
C341        C342   1.404       .  A
C341        H350   1.083       .  S
C342        C343   1.411       .  A
C342        S346   1.801       .  S
C343        C344   1.408       .  A
C344        C345   1.399       .  A
C344        H351   1.084       .  S
C345        S347   1.803       .  S
S346        H349   1.407       .  S
S347        H348   1.392       .  S
C352        C353   1.399       .  A
C352        C357   1.423       .  A
C353        C354   1.403       .  A
C353        H362   1.083       .  S
C354        C355   1.420       .  A
C354        S358   1.807       .  S
C355        C356   1.399       .  A
C356        C357   1.400       .  A
C356        H363   1.085       .  S
C357        S359   1.809       .  S
S358        H361   1.407       .  S
S359       H1398   1.390       .  S
H360       S1397   1.390       .  S
C364        C365   1.402       .  A
C364        C369   1.412       .  A
C365        C366   1.399       .  A
C365        H374   1.085       .  S
C366        C367   1.414       .  A
C366        S370   1.809       .  S
C367        C368   1.401       .  A
C368        C369   1.390       .  A
C368        H375   1.083       .  S
C369        S371   1.805       .  S
S370        H373   1.407       .  S
S371        H372   1.407       .  S
C376        C377   1.407       .  A
C376        C381   1.410       .  A
C377        C378   1.403       .  A
C377        H386   1.085       .  S
C378        C379   1.414       .  A
C378        S382   1.802       .  S
C379        C380   1.409       .  A
C380        C381   1.404       .  A
C380        H387   1.085       .  S
C381        S383   1.802       .  S
S382        H385   1.394       .  S
S383        H384   1.406       .  S
C388        C393   1.407       .  A
C388        C908   1.405       .  A
C389        C907   1.405       .  A
C389        C909   1.398       .  A
C389        H398   1.081       .  S
C390        C391   1.410       .  A
C390        C908   1.398       .  A
C390        S913   1.802       .  S
C391        C392   1.409       .  A
C392        C393   1.407       .  A
C392        H399   1.081       .  S
C393        S395   1.803       .  S
S394        C909   1.802       .  S
S394        H397   1.407       .  S
S395        H396   1.406       .  S
C400        C401   1.405       .  A
C400        C405   1.410       .  A
C401        C921   1.396   1_545  A
C401        H410   1.085       .  S
C402        C403   1.411       .  A
C402        C920   1.396       .  A
C402        S406   1.804       .  S
C403        C404   1.404       .  A
C404        C924   1.393       .  A
C404        H411   1.085       .  S
C405        C923   1.393   1_545  A
C405        S407   1.804       .  S
S406        H409   1.407       .  S
S407        H408   1.407       .  S
C412        C413   1.406       .  A
C412        C417   1.410       .  A
C413        C414   1.408       .  A
C413        H422   1.083       .  S
C414        C415   1.411       .  A
C414        S418   1.801       .  S
C415        C416   1.406       .  A
C416        C417   1.400       .  A
C416        H423   1.085       .  S
C417        S419   1.803       .  S
S418        H421   1.407       .  S
S419        H420   1.406       .  S
C424        C425   1.399       .  A
C424        C429   1.419       .  A
C425        C426   1.397       .  A
C425        H434   1.084       .  S
C426        C427   1.418       .  A
C426        S430   1.806       .  S
C427        C428   1.401       .  A
C428        C429   1.402       .  A
C428        H435   1.084       .  S
C429        S431   1.804       .  S
S430        H433   1.395       .  S
S431       H1470   1.405   1_455  S
H432       S1469   1.405       .  S
C436        C437   1.408       .  A
C436        C441   1.411       .  A
C437        C438   1.394       .  A
C437        H446   1.083       .  S
C438        C439   1.411       .  A
C438       S1480   1.804       .  S
C439        C440   1.407       .  A
C440        C441   1.397       .  A
C440        H447   1.083       .  S
C441        S443   1.803       .  S
S442       C1476   1.804   1_455  S
S442        H445   1.407       .  S
S443        H444   1.407       .  S
C448        C449   1.399       .  A
C448        C453   1.415       .  A
C449        C450   1.402       .  A
C449        H458   1.084       .  S
C450        C451   1.420       .  A
C450        S973   1.803       .  S
C451        C538   1.486       .  S
C451        C452   1.400       .  A
C452        C453   1.402       .  A
C452        H459   1.083       .  S
C453        S455   1.803       .  S
S454        C969   1.803   1_545  S
S454        H457   1.407       .  S
S455        H456   1.406       .  S
C460        C461   1.407       .  A
C460        C465   1.412       .  A
C461        C462   1.402       .  A
C461        H470   1.084       .  S
C462        C463   1.414       .  A
C462        S466   1.798       .  S
C463        C464   1.408       .  A
C464        C465   1.405       .  A
C464        H471   1.084       .  S
C465        S467   1.801       .  S
S466        H469   1.392       .  S
S467        H468   1.407       .  S
C472        C473   1.408       .  A
C472        C477   1.412       .  A
C473        C474   1.395       .  A
C473        H482   1.084       .  S
C474        C475   1.410       .  A
C474        S478   1.805       .  S
C475        C476   1.406       .  A
C476        C477   1.394       .  A
C476        H483   1.084       .  S
C477        S479   1.802       .  S
S478        H481   1.407       .  S
S479        H480   1.407       .  S
C484        C485   1.399       .  A
C484        C489   1.420       .  A
C485        C486   1.403       .  A
C485        H494   1.083       .  S
C486        C487   1.416       .  A
C486        S490   1.804       .  S
C487        C488   1.402       .  A
C488        C489   1.399       .  A
C488        H495   1.084       .  S
C489        S491   1.809       .  S
S490        H493   1.407       .  S
S491        H492   1.396       .  S
C496        C497   1.400       .  A
C496        C501   1.417       .  A
C497        C498   1.401       .  A
C497        H506   1.084       .  S
C498        C499   1.417       .  A
C498        S502   1.805       .  S
C499        C500   1.401       .  A
C500        C501   1.404       .  A
C500        H507   1.084       .  S
C501        S503   1.801       .  S
S502        H505   1.403       .  S
S503        H504   1.406       .  S
C508        C509   1.405       .  A
C508        C513   1.407       .  A
C509        C510   1.397       .  A
C509        H518   1.084       .  S
C510        C511   1.410       .  A
C510        S514   1.801       .  S
C511        C512   1.405       .  A
C512        C513   1.392       .  A
C512        H519   1.085       .  S
C513        S515   1.801       .  S
S514        H517   1.406       .  S
S515        H516   1.407       .  S
C520        N521   1.361       .  A
C520        N525   1.370       .  A
C520       C1015   1.482       .  S
C522        N523   1.346       .  A
C522       C1027   1.466       .  S
C524        N525   1.365       .  A
C524        C685   1.460       .  S
C526        N527   1.372       .  A
C526        N531   1.364       .  A
C526       C1006   1.486       .  S
N527        C528   1.363       .  A
C528        N529   1.348       .  A
C528        C583   1.468       .  S
N529        C530   1.344       .  A
C530        N531   1.355       .  A
C530       C1030   1.468       .  S
C532        N533   1.360       .  A
C532        N537   1.372       .  A
C532        C979   1.489       .  S
N533       C1572   1.354   1_455  A
C534       N1571   1.354       .  A
C534        N535   1.347       .  A
C534        C991   1.476       .  S
N535       C1574   1.349       .  A
C536       N1573   1.349       .  A
C536        N537   1.368       .  A
C536        C670   1.465       .  S
C538        N539   1.373       .  A
C538        N543   1.359       .  A
N539        C540   1.367       .  A
C540        N541   1.350       .  A
C540        C582   1.472       .  S
N541        C542   1.345       .  A
C542        N543   1.352       .  A
C542        C994   1.471       .  S
C544       N1583   1.358       .  A
C544       N1587   1.371       .  A
C544        C943   1.480   1_655  S
N545       C1582   1.359       .  A
N545        C546   1.353       .  A
C546        N547   1.348       .  A
C546        C958   1.473       .  S
N547        C548   1.352       .  A
C548        N549   1.364       .  A
C548        C580   1.472       .  S
N549       C1582   1.371       .  A
C550        N551   1.361       .  A
C550        N555   1.370       .  A
C550        C931   1.479       .  S
N551        C552   1.356       .  A
C552        N553   1.347       .  A
C552        C955   1.476       .  S
N553        C554   1.347       .  A
C554        N555   1.366       .  A
C554        C684   1.461       .  S
C556        C946   1.486       .  S
C556        C557   1.414       .  A
C556        C561   1.416       .  A
C557       C1018   1.492       .  S
C557        C558   1.413       .  A
C558        C967   1.490       .  S
C558        C559   1.415       .  A
C559        C934   1.496       .  S
C559        C560   1.418       .  A
C560       C1003   1.488       .  S
C560        C561   1.418       .  A
C561        C982   1.500       .  S
O562        C578   1.273       .  A
O562       Zn568   2.002       .  S
C563        C607   1.462       .  S
C563        O579   1.273       .  A
C563        O576   1.274       .  A
O564        C577   1.275       .  A
O564       Cd571   2.100       .  S
O565        C583   1.275       .  A
O565       Cd574   2.095       .  S
O566        C580   1.277       .  A
O566       Cd570   2.109       .  S
O567        C578   1.275       .  A
O567       Cd570   2.097       .  S
Zn568       O579   2.001       .  S
Zn568       O581   2.011       .  S
Zn568       O573   1.909       .  S
O569        C580   1.273       .  A
O569       Cd574   2.041       .  S
Cd570       O572   2.049       .  S
Cd570       O573   2.015       .  S
Cd571       O575   2.102       .  S
Cd571       O584   2.043       .  S
Cd571       O573   2.017       .  S
O572        C582   1.275       .  A
O573       Cd574   2.017       .  S
Cd574       O576   2.091       .  S
O575        C582   1.276       .  A
C577        C593   1.468       .  S
C577        O581   1.274       .  A
C578        C617   1.464       .  S
C583        O584   1.275       .  A
C585        N586   1.370       .  A
C585        N590   1.358       .  A
C585        C910   1.481       .  S
N586        C587   1.365       .  A
C587        N588   1.350       .  A
C587        C707   1.463       .  S
N588        C589   1.349       .  A
C589        N590   1.354       .  A
C589        C922   1.468       .  S
C591        N592   1.373       .  A
C591        N596   1.357       .  A
C591        C895   1.485       .  S
N592        C593   1.370       .  A
C593        N594   1.350       .  A
N594        C595   1.346       .  A
C595        N596   1.352       .  A
C595        C919   1.467       .  S
C597        N598   1.357       .  A
C597        N602   1.370       .  A
C597        C874   1.488       .  S
N598        C599   1.353       .  A
C599        N600   1.348       .  A
C599        C886   1.470       .  S
N600        C601   1.350       .  A
C601        N602   1.366       .  A
C601        C708   1.461       .  S
C603        N604   1.359       .  A
C603        N608   1.372       .  A
C603        C862   1.487       .  S
N604        C605   1.351       .  A
C605        N606   1.345       .  A
C605        C883   1.466       .  S
N606        C607   1.349       .  A
C607        N608   1.368       .  A
C609        N610   1.369       .  A
C609        N614   1.358       .  A
C609        C835   1.482       .  S
N610        C611   1.366       .  A
C611        N612   1.351       .  A
C611        C693   1.463       .  S
N612        C613   1.349       .  A
C613        N614   1.355       .  A
C613        C850   1.471       .  S
C615        N616   1.370       .  A
C615        N620   1.361       .  A
C615        C823   1.481       .  S
N616        C617   1.366       .  A
C617        N618   1.349       .  A
N618        C619   1.348       .  A
C619        N620   1.356       .  A
C619        C847   1.471       .  S
C621        C907   1.490       .  S
C621        C622   1.417       .  A
C621       C1145   1.413   1_565  A
C622        C859   1.491       .  S
C622       C1661   1.416       .  A
C623        C838   1.491       .  S
C623       C1660   1.416   1_455  A
C624        C898   1.496       .  S
C624        C625   1.416       .  A
C625        C871   1.489       .  S
C625        C626   1.413   1_455  A
C626       C1864   1.491       .  S
C626       C1140   1.413       .  A
C627        N628   1.371       .  A
C627        N632   1.359       .  A
C627        C799   1.485       .  S
N628        C629   1.367       .  A
C629        N630   1.352       .  A
C629        C712   1.473       .  S
N630        C631   1.348       .  A
C631        N632   1.352       .  A
C631        C811   1.477       .  S
C633        N634   1.362       .  A
C633        N638   1.372       .  A
C633        C790   1.488       .  S
C635        N636   1.344       .  A
C635        C814   1.476       .  S
C637        N638   1.367       .  A
C637        C690   1.470       .  S
C639        N640   1.372       .  A
C639        N644   1.361       .  A
N640        C641   1.365       .  A
C641        N642   1.352       .  A
C641        C713   1.472       .  S
N642        C643   1.346       .  A
C643        N644   1.354       .  A
C643        C778   1.470       .  S
C645       N1684   1.361       .  A
C645        N650   1.373       .  A
C645        C751   1.483       .  S
N646       C1683   1.361   1_455  A
N646        C647   1.353       .  A
C647        N648   1.345       .  A
C647        C775   1.470       .  S
N648       C1687   1.351   1_455  A
C649       N1686   1.351       .  A
C649        N650   1.368       .  A
C649       C1727   1.474       .  S
C651        N652   1.374       .  A
C651        N656   1.360       .  A
C651        C727   1.485       .  S
N652        C653   1.368       .  A
C653        N654   1.351       .  A
C653        C687   1.473       .  S
N654        C655   1.344       .  A
C655        N656   1.352       .  A
C655        C742   1.466       .  S
C657        N658   1.360       .  A
C657        N662   1.371       .  A
C657       C1756   1.482   1_455  S
N658        C659   1.353       .  A
C659        N660   1.345       .  A
C659        C739   1.464       .  S
N660        C661   1.350       .  A
C661        N662   1.365       .  A
C661        C710   1.468       .  S
C663        C730   1.496       .  S
C663        C664   1.420       .  A
C663        C668   1.419       .  A
C664        C802   1.492       .  S
C664        C665   1.419       .  A
C665        C754   1.500       .  S
C665        C666   1.417       .  A
C666        C715   1.488       .  S
C666        C667   1.417       .  A
C667        C787   1.497       .  S
C667        C668   1.417       .  A
C668        C766   1.492       .  S
O669       Zn675   2.006       .  S
C670        O686   1.274       .  A
C670        O683   1.274       .  A
O671        C684   1.273       .  A
O671       Cd678   2.084   1_554  S
O672        C690   1.276       .  A
O672      Cd1719   2.107       .  S
O673        C687   1.276       .  A
O673       Cd677   2.108       .  S
O674        C685   1.274       .  A
Zn675       O686   2.010       .  S
Zn675      O1207   2.012   1_455  S
Zn675       O680   1.917       .  S
O676        C687   1.275       .  A
O676       Cd681   2.048       .  S
Cd677       O680   2.015   1_556  S
Cd678       O682   2.107       .  S
Cd678       O691   2.038       .  S
Cd678      O1199   2.013   1_566  S
O679        C689   1.275       .  A
O680      Cd1197   2.013   1_454  S
O680       Cd681   2.017   1_554  S
Cd681      O1710   2.107   1_455  S
Cd681       O683   2.095   1_556  S
O682       C1727   1.276       .  A
C684        O688   1.274       .  A
O688      Zn1194   2.012   1_565  S
C689       C1687   1.474   1_455  S
C689       O1720   1.276   1_455  A
O692        C708   1.271       .  A
O692       Zn698   2.000       .  S
C693        O709   1.271       .  A
C693        O706   1.274       .  A
O694        C707   1.276       .  A
O694       Cd701   2.100       .  S
O695        C713   1.274       .  A
O695       Cd704   2.041       .  S
O696        C710   1.275       .  A
O696       Cd700   2.050       .  S
O697        C708   1.275       .  A
O697       Cd700   2.092       .  S
Zn698       O709   1.999       .  S
Zn698       O711   1.992       .  S
Zn698       O703   1.912       .  S
O699        C710   1.275       .  A
O699       Cd704   2.092       .  S
Cd700       O702   2.101       .  S
Cd700       O703   2.013       .  S
Cd701       O705   2.054       .  S
Cd701       O714   2.110       .  S
Cd701       O703   2.019       .  S
O702        C712   1.276       .  A
O703       Cd704   2.012       .  S
Cd704       O706   2.094       .  S
O705        C712   1.276       .  A
C707        O711   1.272       .  A
C713        O714   1.277       .  A
C715        C716   1.401       .  A
C715        C720   1.420       .  A
C716        C717   1.401       .  A
C716        H725   1.084       .  S
C717        C718   1.417       .  A
C717        S721   1.803       .  S
C718       C1695   1.482       .  S
C718        C719   1.400       .  A
C719        C720   1.400       .  A
C719        H726   1.084       .  S
C720        S722   1.808       .  S
S721       H1762   1.407       .  S
S722        H723   1.400       .  S
H724       S1759   1.407       .  S
C727        C728   1.407       .  A
C727        C732   1.411       .  A
C728        C729   1.403       .  A
C728        H737   1.084       .  S
C729        C730   1.415       .  A
C729        S733   1.805       .  S
C730        C731   1.407       .  A
C731        C732   1.402       .  A
C731        H738   1.083       .  S
C732        S734   1.801       .  S
S733        H736   1.397       .  S
S734        H735   1.407       .  S
C739        C740   1.399       .  A
C739        C744   1.414       .  A
C740        C741   1.395       .  A
C740        H749   1.084       .  S
C741        C742   1.415       .  A
C741        S745   1.805       .  S
C742        C743   1.400       .  A
C743        C744   1.395       .  A
C743        H750   1.084       .  S
C744        S746   1.805       .  S
S745        H748   1.407       .  S
S746        H747   1.407       .  S
C751        C752   1.404       .  A
C751        C756   1.410       .  A
C752        C753   1.403       .  A
C752        H761   1.084       .  S
C753        C754   1.417       .  A
C753        S757   1.801       .  S
C754        C755   1.408       .  A
C755        C756   1.403       .  A
C755        H762   1.084       .  S
C756        S758   1.802       .  S
S757        H760   1.389       .  S
S758        H759   1.406       .  S
C763        C764   1.410       .  A
C763        C768   1.411       .  A
C764        C765   1.408       .  A
C764        H773   1.082       .  S
C765        C766   1.408       .  A
C765        S769   1.804       .  S
C766        C767   1.403       .  A
C767        C768   1.397       .  A
C767        H774   1.081       .  S
C768        S770   1.802       .  S
S769        H772   1.406       .  S
S770        H771   1.407       .  S
C775        C776   1.401       .  A
C775        C780   1.415       .  A
C776        C777   1.397       .  A
C776        H785   1.085       .  S
C777        C778   1.416       .  A
C777        S781   1.805       .  S
C778        C779   1.400       .  A
C779        C780   1.395       .  A
C779        H786   1.085       .  S
C780        S782   1.805       .  S
S781        H784   1.407       .  S
S782        H783   1.407       .  S
C787        C788   1.408       .  A
C787        C792   1.414       .  A
C788        C789   1.405       .  A
C788        H797   1.084       .  S
C789        C790   1.413       .  A
C789        S793   1.801       .  S
C790        C791   1.406       .  A
C791        C792   1.400       .  A
C791        H798   1.084       .  S
C792        S794   1.801       .  S
S793        H796   1.407       .  S
S794        H795   1.389       .  S
C799        C800   1.410       .  A
C799        C804   1.410       .  A
C800        C801   1.403       .  A
C800        H809   1.084       .  S
C801        C802   1.412       .  A
C801        S805   1.805       .  S
C802        C803   1.406       .  A
C803        C804   1.398       .  A
C803        H810   1.082       .  S
C804        S806   1.801       .  S
S805        H808   1.399       .  S
S806        H807   1.407       .  S
C811        C812   1.407       .  A
C811        C816   1.413       .  A
C812        C813   1.396       .  A
C812        H821   1.084       .  S
C813        C814   1.411       .  A
C813        S817   1.802       .  S
C814        C815   1.407       .  A
C815        C816   1.395       .  A
C815        H822   1.084       .  S
C816        S818   1.803       .  S
S818        H819   1.407       .  S
C823       C1862   1.401       .  A
C823        C828   1.416       .  A
C824       C1861   1.401       .  A
C824        C825   1.403       .  A
C824        H833   1.083       .  S
C825       C1864   1.418       .  A
C825        S829   1.807   1_655  S
C826       C1664   1.491       .  S
C826       C1863   1.418       .  A
C826        C827   1.402       .  A
C827        C828   1.403       .  A
C827        H834   1.081       .  S
C828        S830   1.803       .  S
S829        H832   1.403   1_455  S
S830        H831   1.407       .  S
C835        C836   1.398       .  A
C835        C840   1.417       .  A
C836        C837   1.401       .  A
C836        H845   1.084       .  S
C837        C838   1.422       .  A
C837        S841   1.807       .  S
C838        C839   1.401       .  A
C839        C840   1.403       .  A
C839        H846   1.084       .  S
C840        S842   1.803       .  S
S841        H844   1.394       .  S
S842        H843   1.407       .  S
C847       C1886   1.401       .  A
C847        C852   1.416       .  A
C848       C1885   1.401       .  A
C848        C849   1.398   1_655  A
C848        H857   1.086       .  S
C849        C850   1.415       .  A
C849        S853   1.804       .  S
C850        C851   1.400       .  A
C851       C1890   1.394       .  A
C851        H858   1.086       .  S
C852       C1889   1.394       .  A
C852        S854   1.804       .  S
S853        H856   1.407       .  S
S854        H855   1.407       .  S
C859        C860   1.409       .  A
C859        C864   1.412       .  A
C860        C861   1.404       .  A
C860        H869   1.083       .  S
C861        C862   1.411       .  A
C861        S865   1.801       .  S
C862        C863   1.408       .  A
C863        C864   1.399       .  A
C863        H870   1.084       .  S
C864        S866   1.803       .  S
S865        H868   1.407       .  S
S866        H867   1.392       .  S
C871        C872   1.399       .  A
C871        C876   1.423       .  A
C872        C873   1.403       .  A
C872        H881   1.083       .  S
C873        C874   1.420       .  A
C873        S877   1.807       .  S
C874        C875   1.399       .  A
C875        C876   1.400       .  A
C875        H882   1.084       .  S
C876        S878   1.809       .  S
S877        H880   1.407       .  S
S878       H1917   1.390       .  S
H879       S1916   1.390       .  S
C883        C884   1.402       .  A
C883        C888   1.412       .  A
C884        C885   1.400       .  A
C884        H893   1.084       .  S
C885        C886   1.414       .  A
C885        S889   1.809       .  S
C886        C887   1.401       .  A
C887        C888   1.390       .  A
C887        H894   1.083       .  S
C888        S890   1.805       .  S
S889        H892   1.407       .  S
S890        H891   1.407       .  S
C895        C896   1.407       .  A
C895        C900   1.410       .  A
C896        C897   1.403       .  A
C896        H905   1.085       .  S
C897        C898   1.414       .  A
C897        S901   1.802       .  S
C898        C899   1.409       .  A
C899        C900   1.404       .  A
C899        H906   1.085       .  S
C900        S902   1.802       .  S
S901        H904   1.394       .  S
S902        H903   1.406       .  S
C907        C912   1.407       .  A
C908        H917   1.081       .  S
C909        C910   1.410       .  A
C910        C911   1.409       .  A
C911        C912   1.407       .  A
C911        H918   1.081       .  S
C912        S914   1.803       .  S
S913        H916   1.407       .  S
S914        H915   1.406       .  S
C919        C920   1.405       .  A
C919        C924   1.410       .  A
C920        H929   1.085       .  S
C921        C922   1.411       .  A
C921        S925   1.804       .  S
C922        C923   1.404       .  A
C923        H930   1.085       .  S
C924        S926   1.804       .  S
S925        H928   1.407       .  S
S926        H927   1.407       .  S
C931        C932   1.406       .  A
C931        C936   1.410       .  A
C932        C933   1.408       .  A
C932        H941   1.083       .  S
C933        C934   1.411       .  A
C933        S937   1.801       .  S
C934        C935   1.406       .  A
C935        C936   1.400       .  A
C935        H942   1.084       .  S
C936        S938   1.803       .  S
S937        H940   1.407       .  S
S938        H939   1.406       .  S
C943        C944   1.399       .  A
C943        C948   1.419       .  A
C944        C945   1.397       .  A
C944        H953   1.084       .  S
C945        C946   1.418       .  A
C945        S949   1.806       .  S
C946        C947   1.401       .  A
C947        C948   1.402       .  A
C947        H954   1.084       .  S
C948        S950   1.804       .  S
S949        H952   1.395       .  S
S950       H1989   1.405   1_455  S
H951       S1988   1.405       .  S
C955        C956   1.408       .  A
C955        C960   1.411       .  A
C956        C957   1.393       .  A
C956        H965   1.083       .  S
C957        C958   1.411       .  A
C957       S1999   1.804       .  S
C958        C959   1.407       .  A
C959        C960   1.397       .  A
C959        H966   1.083       .  S
C960        S962   1.803       .  S
S961       C1995   1.804   1_455  S
S961        H964   1.407       .  S
S962        H963   1.407       .  S
C967        C968   1.399       .  A
C967        C972   1.415       .  A
C968        C969   1.402       .  A
C968        H977   1.084       .  S
C969        C970   1.420       .  A
C970        C971   1.400       .  A
C971        C972   1.402       .  A
C971        H978   1.083       .  S
C972        S974   1.803       .  S
S973        H976   1.407       .  S
S974        H975   1.406       .  S
C979        C980   1.407       .  A
C979        C984   1.412       .  A
C980        C981   1.402       .  A
C980        H989   1.084       .  S
C981        C982   1.414       .  A
C981        S985   1.798       .  S
C982        C983   1.408       .  A
C983        C984   1.405       .  A
C983        H990   1.085       .  S
C984        S986   1.801       .  S
S985        H988   1.392       .  S
S986        H987   1.407       .  S
C991        C992   1.408       .  A
C991        C996   1.412       .  A
C992        C993   1.395       .  A
C992       H1001   1.084       .  S
C993        C994   1.410       .  A
C993        S997   1.805       .  S
C994        C995   1.406       .  A
C995        C996   1.394       .  A
C995       H1002   1.084       .  S
C996        S998   1.802       .  S
S997       H1000   1.407       .  S
S998        H999   1.407       .  S
C1003      C1004   1.399       .  A
C1003      C1008   1.420       .  A
C1004      C1005   1.403       .  A
C1004      H1013   1.083       .  S
C1005      C1006   1.416       .  A
C1005      S1009   1.804       .  S
C1006      C1007   1.402       .  A
C1007      C1008   1.399       .  A
C1007      H1014   1.084       .  S
C1008      S1010   1.809       .  S
S1009      H1012   1.407       .  S
S1010      H1011   1.396       .  S
C1015      C1016   1.400       .  A
C1015      C1020   1.417       .  A
C1016      C1017   1.401       .  A
C1016      H1025   1.084       .  S
C1017      C1018   1.417       .  A
C1017      S1021   1.805       .  S
C1018      C1019   1.401       .  A
C1019      C1020   1.404       .  A
C1019      H1026   1.083       .  S
C1020      S1022   1.801       .  S
S1021      H1024   1.403       .  S
S1022      H1023   1.406       .  S
C1027      C1028   1.405       .  A
C1027      C1032   1.407       .  A
C1028      C1029   1.397       .  A
C1028      H1037   1.084       .  S
C1029      C1030   1.410       .  A
C1029      S1033   1.801       .  S
C1030      C1031   1.405       .  A
C1031      C1032   1.392       .  A
C1031      H1038   1.085       .  S
C1032      S1034   1.801       .  S
S1033      H1036   1.406       .  S
S1034      H1035   1.407       .  S
C1039      N1040   1.361       .  A
C1039      N1044   1.370       .  A
C1039      C1534   1.482       .  S
N1040      C1560   1.357       .  A
C1041      N1559   1.357   1_545  A
C1041      N1042   1.346       .  A
C1041      C1546   1.466       .  S
N1042      C1562   1.348   1_545  A
C1043      N1561   1.348       .  A
C1043      N1044   1.365       .  A
C1043      C1204   1.460       .  S
C1045      N1046   1.372       .  A
C1045      N1050   1.364       .  A
C1045      C1525   1.486       .  S
N1046      C1047   1.363       .  A
C1047      N1048   1.348       .  A
C1047      C1102   1.468       .  S
N1048      C1049   1.344       .  A
C1049      N1050   1.355       .  A
C1049      C1549   1.468       .  S
C1051      N1052   1.360       .  A
C1051      N1056   1.372       .  A
C1051      C1498   1.489       .  S
C1053      N1054   1.347   1_655  A
C1053      C1510   1.476       .  S
C1055      N1056   1.368       .  A
C1055      C1189   1.465       .  S
C1057      N1058   1.373       .  A
C1057      N1062   1.359       .  A
C1057      C2008   1.486   1_545  S
N1058      C1059   1.367       .  A
C1059      N1060   1.350       .  A
C1059      C1101   1.472       .  S
N1060      C1061   1.345       .  A
C1061      N1062   1.352       .  A
C1061      C1513   1.471       .  S
C1063      C1462   1.480       .  S
N1064      C1065   1.353       .  A
C1065      N1066   1.348       .  A
C1065      C1477   1.473       .  S
N1066      C1067   1.352       .  A
C1067      N1068   1.364       .  A
C1067      C1099   1.472       .  S
C1069      N1070   1.361       .  A
C1069      N1074   1.370       .  A
C1069      C1450   1.479       .  S
N1070      C1071   1.356       .  A
C1071      N1072   1.347       .  A
C1071      C1474   1.476       .  S
N1072      C1073   1.347       .  A
C1073      N1074   1.366       .  A
C1073      C1203   1.461       .  S
C1075      C1465   1.486       .  S
C1075      C1076   1.414       .  A
C1075      C1080   1.416       .  A
C1076      C1537   1.492       .  S
C1076      C1077   1.413       .  A
C1077      C1486   1.490       .  S
C1077      C1078   1.415       .  A
C1078      C1453   1.496       .  S
C1078      C1079   1.418       .  A
C1079      C1522   1.488       .  S
C1079      C1080   1.418       .  A
C1080      C1501   1.500       .  S
O1081      C1097   1.273       .  A
O1081     Zn1087   2.002       .  S
C1082      C1126   1.462       .  S
C1082      O1098   1.273       .  A
C1082      O1095   1.274       .  A
O1083      C1096   1.275       .  A
O1083     Cd1090   2.100       .  S
O1084      C1102   1.275       .  A
O1084     Cd1093   2.095       .  S
O1085      C1099   1.277       .  A
O1085     Cd1089   2.109       .  S
O1086      C1097   1.275       .  A
O1086     Cd1089   2.097       .  S
Zn1087     O1098   2.001       .  S
Zn1087     O1100   2.011       .  S
Zn1087     O1092   1.909       .  S
O1088      C1099   1.273       .  A
O1088     Cd1093   2.041       .  S
Cd1089     O1091   2.049       .  S
Cd1089     O1092   2.015       .  S
Cd1090     O1094   2.102       .  S
Cd1090     O1103   2.043       .  S
Cd1090     O1092   2.017       .  S
O1091      C1101   1.275       .  A
O1092     Cd1093   2.017       .  S
Cd1093     O1095   2.091       .  S
O1094      C1101   1.276       .  A
C1096      C1112   1.468       .  S
C1096      O1100   1.274       .  A
C1097      C1136   1.464       .  S
C1102      O1103   1.275       .  A
C1104      N1105   1.370       .  A
C1104      N1109   1.358       .  A
C1104      C1429   1.481       .  S
N1105      C1106   1.365       .  A
C1106      N1107   1.350       .  A
C1106      C1226   1.463       .  S
N1107      C1108   1.349       .  A
C1108      N1109   1.354       .  A
C1108      C1441   1.468       .  S
C1110      N1111   1.373       .  A
C1110      N1115   1.357       .  A
C1110      C1414   1.485       .  S
N1111      C1112   1.370       .  A
C1112      N1113   1.350       .  A
N1113      C1114   1.346       .  A
C1114      N1115   1.352       .  A
C1114      C1438   1.467       .  S
C1116      N1117   1.357       .  A
C1116      N1121   1.370       .  A
C1116      C1393   1.488       .  S
N1117      C1118   1.353       .  A
C1118      N1119   1.348       .  A
C1118      C1405   1.470       .  S
N1119      C1120   1.350       .  A
C1120      N1121   1.366       .  A
C1120      C1227   1.461       .  S
C1122      N1123   1.359       .  A
C1122      N1127   1.372       .  A
C1122      C1381   1.486       .  S
N1123      C1124   1.351       .  A
C1124      N1125   1.345       .  A
C1124      C1402   1.466       .  S
N1125      C1126   1.349       .  A
C1126      N1127   1.368       .  A
C1128      N1129   1.369       .  A
C1128      N1133   1.358       .  A
C1128      C1354   1.482       .  S
N1129      C1130   1.366       .  A
C1130      N1131   1.351       .  A
C1130      C1212   1.463       .  S
N1131      C1132   1.349       .  A
C1132      N1133   1.355       .  A
C1132      C1369   1.471       .  S
C1134      N1135   1.370       .  A
C1134      N1139   1.361       .  A
C1134      C1342   1.481       .  S
N1135      C1136   1.366       .  A
C1136      N1137   1.349       .  A
N1137      C1138   1.348       .  A
C1138      N1139   1.356       .  A
C1138      C1366   1.471       .  S
C1140      C1426   1.490       .  S
C1140      C1141   1.417       .  A
C1141      C1378   1.491       .  S
C1142      C1357   1.491       .  S
C1142      C1662   1.415       .  A
C1143      C1417   1.496       .  S
C1143      C1661   1.415   1_545  A
C1143      C1144   1.416       .  A
C1144      C1390   1.489       .  S
C1144      C1145   1.413       .  A
C1146      N1147   1.371       .  A
C1146      N1151   1.359       .  A
C1146      C1318   1.485       .  S
N1147      C1148   1.367       .  A
C1148      N1149   1.352       .  A
C1148      C1231   1.473       .  S
N1149      C1150   1.348       .  A
C1150      N1151   1.352       .  A
C1150      C1330   1.477       .  S
C1152      N1153   1.362       .  A
C1152      N1157   1.372       .  A
C1152      C1309   1.488       .  S
N1153      C1673   1.353   1_545  A
C1154      N1672   1.353       .  A
C1154      N1155   1.344       .  A
C1154      C1333   1.476       .  S
N1155      C1675   1.351       .  A
C1156      N1674   1.351   1_545  A
C1156      N1157   1.367       .  A
C1156      C1209   1.470       .  S
C1158      N1159   1.372       .  A
C1158      N1163   1.361       .  A
C1158      C1801   1.484       .  S
N1159      C1160   1.365       .  A
C1160      N1161   1.352       .  A
C1160      C1232   1.472       .  S
N1161      C1162   1.346       .  A
C1162      N1163   1.354       .  A
C1162      C1297   1.470       .  S
C1164      N1169   1.373       .  A
C1164      C1270   1.483       .  S
N1165      C1166   1.353       .  A
C1166      N1167   1.345       .  A
C1166      C1294   1.470       .  S
C1168      N1169   1.368       .  A
C1170      N1171   1.374       .  A
C1170      N1175   1.360       .  A
C1170      C1246   1.485       .  S
N1171      C1172   1.368       .  A
C1172      N1173   1.351       .  A
C1172      C1206   1.473       .  S
N1173      C1174   1.344       .  A
C1174      N1175   1.352       .  A
C1174      C1261   1.466       .  S
C1176      N1177   1.360       .  A
C1176      N1181   1.371       .  A
N1177      C1178   1.353       .  A
C1178      N1179   1.345       .  A
C1178      C1258   1.464       .  S
N1179      C1180   1.350       .  A
C1180      N1181   1.365       .  A
C1180      C1229   1.468       .  S
C1182      C1249   1.496       .  S
C1182      C1183   1.420       .  A
C1182      C1187   1.419       .  A
C1183      C1321   1.492       .  S
C1183      C1184   1.419       .  A
C1184      C1273   1.500       .  S
C1184      C1185   1.417       .  A
C1185      C1234   1.488       .  S
C1185      C1186   1.417       .  A
C1186      C1306   1.497       .  S
C1186      C1187   1.417       .  A
C1187      C1285   1.492       .  S
O1188      C1723   1.273       .  A
O1188     Zn1194   2.006   1_565  S
C1189      O1205   1.274       .  A
C1189      O1202   1.274       .  A
O1190      C1203   1.273       .  A
O1190     Cd1197   2.084   1_554  S
O1191      C1209   1.276       .  A
O1192      C1206   1.276       .  A
O1192     Cd1196   2.108   1_545  S
O1193      C1204   1.274       .  A
O1193     Cd1715   2.085   1_554  S
Zn1194     O1205   2.010       .  S
Zn1194     O1199   1.917       .  S
O1195      C1206   1.275       .  A
O1195     Cd1200   2.048       .  S
Cd1196     O1712   2.085   1_556  S
Cd1196     O1717   2.051       .  S
Cd1196     O1199   2.015   1_566  S
Cd1197     O1201   2.107       .  S
Cd1197     O1210   2.038       .  S
O1198      C1208   1.275       .  A
O1198     Cd1715   2.051       .  S
O1199     Cd1200   2.017   1_554  S
Cd1200     O1202   2.095   1_556  S
C1203      O1207   1.273       .  A
C1204      O1707   1.273       .  A
C1209      O1729   1.274   1_545  A
O1210      C1728   1.274       .  A
O1211      C1227   1.271       .  A
O1211     Zn1217   2.000       .  S
C1212      O1228   1.271       .  A
C1212      O1225   1.274       .  A
O1213      C1226   1.276       .  A
O1213     Cd1220   2.100       .  S
O1214      C1232   1.274       .  A
O1214     Cd1223   2.041       .  S
O1215      C1229   1.275       .  A
O1215     Cd1219   2.050       .  S
O1216      C1227   1.275       .  A
O1216     Cd1219   2.092       .  S
Zn1217     O1228   1.999       .  S
Zn1217     O1230   1.992       .  S
Zn1217     O1222   1.912       .  S
O1218      C1229   1.275       .  A
O1218     Cd1223   2.092       .  S
Cd1219     O1221   2.101       .  S
Cd1219     O1222   2.013       .  S
Cd1220     O1224   2.054       .  S
Cd1220     O1233   2.110       .  S
Cd1220     O1222   2.019       .  S
O1221      C1231   1.276       .  A
O1222     Cd1223   2.012       .  S
Cd1223     O1225   2.094       .  S
O1224      C1231   1.276       .  A
C1226      O1230   1.272       .  A
C1232      O1233   1.277       .  A
C1234      C1235   1.401       .  A
C1234      C1239   1.420       .  A
C1235      C1236   1.401       .  A
C1235      H1244   1.084       .  S
C1236      C1237   1.417       .  A
C1236      S1240   1.803   1_655  S
C1237      C1238   1.400       .  A
C1238      C1239   1.400       .  A
C1238      H1245   1.084       .  S
C1239      S1241   1.808       .  S
S1241      H1242   1.400       .  S
C1246      C1247   1.407       .  A
C1246      C1251   1.411       .  A
C1247      C1248   1.403       .  A
C1247      H1256   1.084       .  S
C1248      C1249   1.415       .  A
C1248      S1252   1.805       .  S
C1249      C1250   1.407       .  A
C1250      C1251   1.402       .  A
C1250      H1257   1.083       .  S
C1251      S1253   1.801       .  S
S1252      H1255   1.397       .  S
S1253      H1254   1.407       .  S
C1258      C1259   1.399       .  A
C1258      C1263   1.414       .  A
C1259      C1260   1.395       .  A
C1259      H1268   1.085       .  S
C1260      C1261   1.415       .  A
C1260      S1264   1.805       .  S
C1261      C1262   1.400       .  A
C1262      C1263   1.395       .  A
C1262      H1269   1.085       .  S
C1263      S1265   1.805       .  S
S1264      H1267   1.407       .  S
S1265      H1266   1.407       .  S
C1270      C1271   1.404       .  A
C1270      C1275   1.410       .  A
C1271      C1272   1.403       .  A
C1271      H1280   1.084       .  S
C1272      C1273   1.417       .  A
C1272      S1276   1.801       .  S
C1273      C1274   1.408       .  A
C1274      C1275   1.403       .  A
C1274      H1281   1.083       .  S
C1275      S1277   1.802       .  S
S1276      H1279   1.389       .  S
S1277      H1278   1.406       .  S
C1282      C1677   1.484   1_545  S
C1282      C1283   1.410       .  A
C1282      C1287   1.411       .  A
C1283      C1284   1.408       .  A
C1283      H1292   1.082       .  S
C1284      C1285   1.408       .  A
C1284      S1288   1.804       .  S
C1285      C1286   1.404       .  A
C1286      C1287   1.397       .  A
C1286      H1293   1.081       .  S
C1287      S1289   1.802       .  S
S1288      H1291   1.406       .  S
S1289      H1290   1.407       .  S
C1294      C1295   1.401       .  A
C1294      C1299   1.415       .  A
C1295      C1296   1.397       .  A
C1295      H1304   1.085       .  S
C1296      C1297   1.416       .  A
C1296      S1300   1.805       .  S
C1297      C1298   1.400       .  A
C1298      C1299   1.395       .  A
C1298      H1305   1.085       .  S
C1299      S1301   1.805       .  S
S1300      H1303   1.407       .  S
S1301      H1302   1.407       .  S
C1306      C1307   1.408       .  A
C1306      C1311   1.414       .  A
C1307      C1308   1.405       .  A
C1307      H1316   1.084       .  S
C1308      C1309   1.413       .  A
C1308      S1312   1.801       .  S
C1309      C1310   1.406       .  A
C1310      C1311   1.400       .  A
C1310      H1317   1.084       .  S
C1311      S1313   1.801       .  S
S1312      H1315   1.407       .  S
S1313      H1314   1.389       .  S
C1318      C1319   1.410       .  A
C1318      C1323   1.410       .  A
C1319      C1320   1.403       .  A
C1319      H1328   1.084       .  S
C1320      C1321   1.412       .  A
C1320      S1324   1.805       .  S
C1321      C1322   1.406       .  A
C1322      C1323   1.398       .  A
C1322      H1329   1.082       .  S
C1323      S1325   1.801       .  S
S1324      H1327   1.399       .  S
S1325      H1326   1.407       .  S
C1330      C1331   1.407       .  A
C1330      C1335   1.413       .  A
C1331      C1332   1.396       .  A
C1331      H1340   1.084       .  S
C1332      C1333   1.411       .  A
C1332      S1336   1.802       .  S
C1333      C1334   1.407       .  A
C1334      C1335   1.395       .  A
C1334      H1341   1.084       .  S
C1335      S1337   1.803       .  S
S1336      H1858   1.407       .  S
S1337      H1338   1.407       .  S
H1339      S1855   1.407   1_545  S
C1342      C1347   1.416       .  A
C1343      C1344   1.403       .  A
C1343      H1352   1.083       .  S
C1344      S1348   1.807       .  S
C1345      C1346   1.402       .  A
C1346      C1347   1.403       .  A
C1346      H1353   1.081       .  S
C1347      S1349   1.803       .  S
S1348      H1351   1.403       .  S
S1349      H1350   1.407       .  S
C1354      C1355   1.398       .  A
C1354      C1359   1.417       .  A
C1355      C1356   1.401       .  A
C1355      H1364   1.084       .  S
C1356      C1357   1.422       .  A
C1356      S1360   1.807       .  S
C1357      C1358   1.401       .  A
C1358      C1359   1.403       .  A
C1358      H1365   1.084       .  S
C1359      S1361   1.803       .  S
S1360      H1363   1.394       .  S
S1361      H1362   1.407       .  S
C1366      C1371   1.416   1_655  A
C1367      C1368   1.398       .  A
C1367      H1376   1.086       .  S
C1368      C1369   1.415       .  A
C1368      S1372   1.804       .  S
C1369      C1370   1.400       .  A
C1370      H1377   1.086       .  S
C1371      S1373   1.804       .  S
S1372      H1375   1.407       .  S
S1373      H1374   1.407       .  S
C1378      C1379   1.409       .  A
C1378      C1383   1.412       .  A
C1379      C1380   1.404       .  A
C1379      H1388   1.083       .  S
C1380      C1381   1.411       .  A
C1380      S1384   1.801       .  S
C1381      C1382   1.408       .  A
C1382      C1383   1.399       .  A
C1382      H1389   1.084       .  S
C1383      S1385   1.803       .  S
S1384      H1387   1.407       .  S
S1385      H1386   1.392       .  S
C1390      C1391   1.399       .  A
C1390      C1395   1.423       .  A
C1391      C1392   1.403       .  A
C1391      H1400   1.083       .  S
C1392      C1393   1.420       .  A
C1392      S1396   1.807       .  S
C1393      C1394   1.399       .  A
C1394      C1395   1.400       .  A
C1394      H1401   1.084       .  S
C1395      S1397   1.809       .  S
S1396      H1399   1.407       .  S
C1402      C1403   1.402       .  A
C1402      C1407   1.412       .  A
C1403      C1404   1.400       .  A
C1403      H1412   1.084       .  S
C1404      C1405   1.414       .  A
C1404      S1408   1.809       .  S
C1405      C1406   1.401       .  A
C1406      C1407   1.390       .  A
C1406      H1413   1.083       .  S
C1407      S1409   1.805       .  S
S1408      H1411   1.407       .  S
S1409      H1410   1.407       .  S
C1414      C1415   1.407       .  A
C1414      C1419   1.410       .  A
C1415      C1416   1.403       .  A
C1415      H1424   1.085       .  S
C1416      C1417   1.414       .  A
C1416      S1420   1.802       .  S
C1417      C1418   1.409       .  A
C1418      C1419   1.404       .  A
C1418      H1425   1.085       .  S
C1419      S1421   1.802       .  S
S1420      H1423   1.394       .  S
S1421      H1422   1.406       .  S
C1426      C1946   1.405       .  A
C1426      C1431   1.407       .  A
C1427      C1945   1.405       .  A
C1427      C1947   1.398       .  A
C1427      H1436   1.081       .  S
C1428      C1946   1.398       .  A
C1428      C1429   1.410       .  A
C1428      S1951   1.802       .  S
C1429      C1430   1.409       .  A
C1430      C1431   1.407       .  A
C1430      H1437   1.081       .  S
C1431      S1433   1.803       .  S
S1432      C1947   1.802       .  S
S1432      H1435   1.407       .  S
S1433      H1434   1.406       .  S
C1438      C1439   1.405       .  A
C1438      C1443   1.410       .  A
C1439      C1959   1.396   1_545  A
C1439      H1448   1.085       .  S
C1440      C1958   1.396       .  A
C1440      C1441   1.411       .  A
C1440      S1444   1.804       .  S
C1441      C1442   1.404       .  A
C1442      C1962   1.393       .  A
C1442      H1449   1.085       .  S
C1443      C1961   1.393   1_545  A
C1443      S1445   1.804       .  S
S1444      H1447   1.407       .  S
S1445      H1446   1.407       .  S
C1450      C1451   1.406       .  A
C1450      C1455   1.410       .  A
C1451      C1452   1.408       .  A
C1451      H1460   1.083       .  S
C1452      C1453   1.411       .  A
C1452      S1456   1.801       .  S
C1453      C1454   1.406       .  A
C1454      C1455   1.400       .  A
C1454      H1461   1.085       .  S
C1455      S1457   1.803       .  S
S1456      H1459   1.407       .  S
S1457      H1458   1.406       .  S
C1462      C1463   1.399       .  A
C1462      C1467   1.419       .  A
C1463      C1464   1.397       .  A
C1463      H1472   1.084       .  S
C1464      C1465   1.418       .  A
C1464      S1468   1.806       .  S
C1465      C1466   1.401       .  A
C1466      C1467   1.402       .  A
C1466      H1473   1.084       .  S
C1467      S1469   1.804       .  S
S1468      H1471   1.395       .  S
C1474      C1475   1.408       .  A
C1474      C1479   1.411       .  A
C1475      C1476   1.393       .  A
C1475      H1484   1.083       .  S
C1476      C1477   1.411       .  A
C1477      C1478   1.407       .  A
C1478      C1479   1.397       .  A
C1478      H1485   1.083       .  S
C1479      S1481   1.803       .  S
S1480      H1483   1.407       .  S
S1481      H1482   1.407       .  S
C1486      C1487   1.399       .  A
C1486      C1491   1.415       .  A
C1487      C1488   1.402       .  A
C1487      H1496   1.084       .  S
C1488      C1489   1.420       .  A
C1488      S2011   1.803       .  S
C1489      C1576   1.486       .  S
C1489      C1490   1.400       .  A
C1490      C1491   1.402       .  A
C1490      H1497   1.083       .  S
C1491      S1493   1.803       .  S
S1492      C2007   1.803   1_545  S
S1492      H1495   1.407       .  S
S1493      H1494   1.406       .  S
C1498      C1499   1.407       .  A
C1498      C1503   1.412       .  A
C1499      C1500   1.402       .  A
C1499      H1508   1.084       .  S
C1500      C1501   1.414       .  A
C1500      S1504   1.798       .  S
C1501      C1502   1.408       .  A
C1502      C1503   1.405       .  A
C1502      H1509   1.084       .  S
C1503      S1505   1.801       .  S
S1504      H1507   1.392       .  S
S1505      H1506   1.407       .  S
C1510      C1511   1.408       .  A
C1510      C1515   1.412       .  A
C1511      C1512   1.395       .  A
C1511      H1520   1.084       .  S
C1512      C1513   1.410       .  A
C1512      S1516   1.805       .  S
C1513      C1514   1.406       .  A
C1514      C1515   1.394       .  A
C1514      H1521   1.084       .  S
C1515      S1517   1.802       .  S
S1516      H1519   1.407       .  S
S1517      H1518   1.407       .  S
C1522      C1523   1.399       .  A
C1522      C1527   1.420       .  A
C1523      C1524   1.403       .  A
C1523      H1532   1.083       .  S
C1524      C1525   1.416       .  A
C1524      S1528   1.804       .  S
C1525      C1526   1.402       .  A
C1526      C1527   1.399       .  A
C1526      H1533   1.084       .  S
C1527      S1529   1.809       .  S
S1528      H1531   1.407       .  S
S1529      H1530   1.396       .  S
C1534      C1535   1.400       .  A
C1534      C1539   1.417       .  A
C1535      C1536   1.401       .  A
C1535      H1544   1.084       .  S
C1536      C1537   1.417       .  A
C1536      S1540   1.805       .  S
C1537      C1538   1.401       .  A
C1538      C1539   1.404       .  A
C1538      H1545   1.084       .  S
C1539      S1541   1.801       .  S
S1540      H1543   1.403       .  S
S1541      H1542   1.406       .  S
C1546      C1547   1.405       .  A
C1546      C1551   1.407       .  A
C1547      C1548   1.397       .  A
C1547      H1556   1.084       .  S
C1548      C1549   1.410       .  A
C1548      S1552   1.801       .  S
C1549      C1550   1.405       .  A
C1550      C1551   1.392       .  A
C1550      H1557   1.085       .  S
C1551      S1553   1.801       .  S
S1552      H1555   1.406       .  S
S1553      H1554   1.407       .  S
C1558      N1559   1.361       .  A
C1558      N1563   1.370       .  A
C1558      C2053   1.482       .  S
C1560      N1561   1.346       .  A
C1560      C2065   1.466       .  S
C1562      N1563   1.365       .  A
C1562      C1723   1.460       .  S
C1564      N1565   1.372       .  A
C1564      N1569   1.364       .  A
C1564      C2044   1.486       .  S
N1565      C1566   1.363       .  A
C1566      N1567   1.348       .  A
C1566      C1621   1.468       .  S
N1567      C1568   1.344       .  A
C1568      N1569   1.355       .  A
C1568      C2068   1.468       .  S
C1570      N1571   1.360       .  A
C1570      N1575   1.372       .  A
C1570      C2017   1.489       .  S
C1572      N1573   1.347   1_655  A
C1572      C2029   1.476       .  S
C1574      N1575   1.368       .  A
C1574      C1708   1.465       .  S
C1576      N1577   1.373       .  A
C1576      N1581   1.359       .  A
N1577      C1578   1.367       .  A
C1578      N1579   1.350       .  A
C1578      C1620   1.472       .  S
N1579      C1580   1.345       .  A
C1580      N1581   1.352       .  A
C1580      C2032   1.471       .  S
C1582      C1981   1.480       .  S
N1583      C1584   1.353       .  A
C1584      N1585   1.348       .  A
C1584      C1996   1.473       .  S
N1585      C1586   1.352       .  A
C1586      N1587   1.364       .  A
C1586      C1618   1.472       .  S
C1588      N1589   1.361       .  A
C1588      N1593   1.370       .  A
C1588      C1969   1.479       .  S
N1589      C1590   1.356       .  A
C1590      N1591   1.347       .  A
C1590      C1993   1.476       .  S
N1591      C1592   1.347       .  A
C1592      N1593   1.366       .  A
C1592      C1722   1.461       .  S
C1594      C1984   1.486       .  S
C1594      C1595   1.414       .  A
C1594      C1599   1.416       .  A
C1595      C2056   1.492       .  S
C1595      C1596   1.413       .  A
C1596      C2005   1.490       .  S
C1596      C1597   1.415       .  A
C1597      C1972   1.496       .  S
C1597      C1598   1.418       .  A
C1598      C2041   1.488       .  S
C1598      C1599   1.418       .  A
C1599      C2020   1.500       .  S
O1600      C1616   1.273       .  A
O1600     Zn1606   2.002       .  S
C1601      C1645   1.462       .  S
C1601      O1617   1.273       .  A
C1601      O1614   1.274       .  A
O1602      C1615   1.275       .  A
O1602     Cd1609   2.100       .  S
O1603      C1621   1.275       .  A
O1603     Cd1612   2.095       .  S
O1604      C1618   1.277       .  A
O1604     Cd1608   2.109       .  S
O1605      C1616   1.275       .  A
O1605     Cd1608   2.097       .  S
Zn1606     O1617   2.001       .  S
Zn1606     O1619   2.011       .  S
Zn1606     O1611   1.909       .  S
O1607      C1618   1.273       .  A
O1607     Cd1612   2.041       .  S
Cd1608     O1610   2.049       .  S
Cd1608     O1611   2.015       .  S
Cd1609     O1613   2.102       .  S
Cd1609     O1622   2.043       .  S
Cd1609     O1611   2.017       .  S
O1610      C1620   1.275       .  A
O1611     Cd1612   2.017       .  S
Cd1612     O1614   2.091       .  S
O1613      C1620   1.276       .  A
C1615      C1631   1.468       .  S
C1615      O1619   1.274       .  A
C1616      C1655   1.464       .  S
C1621      O1622   1.275       .  A
C1623      N1624   1.370       .  A
C1623      N1628   1.358       .  A
C1623      C1948   1.481       .  S
N1624      C1625   1.365       .  A
C1625      N1626   1.350       .  A
C1625      C1745   1.463       .  S
N1626      C1627   1.349       .  A
C1627      N1628   1.354       .  A
C1627      C1960   1.468       .  S
C1629      N1630   1.373       .  A
C1629      N1634   1.357       .  A
C1629      C1933   1.485       .  S
N1630      C1631   1.370       .  A
C1631      N1632   1.350       .  A
N1632      C1633   1.346       .  A
C1633      N1634   1.352       .  A
C1633      C1957   1.467       .  S
C1635      N1636   1.357       .  A
C1635      N1640   1.370       .  A
C1635      C1912   1.488       .  S
N1636      C1637   1.353       .  A
C1637      N1638   1.348       .  A
C1637      C1924   1.470       .  S
N1638      C1639   1.350       .  A
C1639      N1640   1.366       .  A
C1639      C1746   1.461       .  S
C1641      N1642   1.359       .  A
C1641      N1646   1.372       .  A
C1641      C1900   1.486       .  S
N1642      C1643   1.351       .  A
C1643      N1644   1.345       .  A
C1643      C1921   1.466       .  S
N1644      C1645   1.349       .  A
C1645      N1646   1.368       .  A
C1647      N1648   1.369       .  A
C1647      N1652   1.358       .  A
C1647      C1873   1.482       .  S
N1648      C1649   1.366       .  A
C1649      N1650   1.351       .  A
C1649      C1731   1.463       .  S
N1650      C1651   1.349       .  A
C1651      N1652   1.355       .  A
C1651      C1888   1.471       .  S
C1653      N1654   1.370       .  A
C1653      N1658   1.361       .  A
C1653      C1861   1.481       .  S
N1654      C1655   1.366       .  A
C1655      N1656   1.349       .  A
N1656      C1657   1.348       .  A
C1657      N1658   1.356       .  A
C1657      C1885   1.471       .  S
C1659      C1945   1.490       .  S
C1659      C1660   1.417       .  A
C1660      C1897   1.491       .  S
C1661      C1876   1.491       .  S
C1662      C1936   1.496       .  S
C1662      C1663   1.416       .  A
C1663      C1909   1.489       .  S
C1663      C1664   1.413       .  A
C1665      N1666   1.371       .  A
C1665      N1670   1.359       .  A
C1665      C1837   1.485       .  S
N1666      C1667   1.367       .  A
C1667      N1668   1.352       .  A
C1667      C1750   1.473       .  S
N1668      C1669   1.348       .  A
C1669      N1670   1.352       .  A
C1669      C1849   1.477       .  S
C1671      N1672   1.362       .  A
C1671      N1676   1.372       .  A
C1671      C1828   1.488       .  S
C1673      N1674   1.344       .  A
C1673      C1852   1.476       .  S
C1675      N1676   1.367       .  A
C1675      C1728   1.470       .  S
C1677      N1678   1.372       .  A
C1677      N1682   1.361       .  A
N1678      C1679   1.365       .  A
C1679      N1680   1.352       .  A
C1679      C1751   1.472       .  S
N1680      C1681   1.346       .  A
C1681      N1682   1.354       .  A
C1681      C1816   1.470       .  S
C1683      N1688   1.373       .  A
C1683      C1789   1.483       .  S
N1684      C1685   1.353       .  A
C1685      N1686   1.345       .  A
C1685      C1813   1.470       .  S
C1687      N1688   1.368       .  A
C1689      N1690   1.374       .  A
C1689      N1694   1.360       .  A
C1689      C1765   1.485       .  S
N1690      C1691   1.368       .  A
C1691      N1692   1.351       .  A
C1691      C1725   1.473       .  S
N1692      C1693   1.344       .  A
C1693      N1694   1.352       .  A
C1693      C1780   1.466       .  S
C1695      N1696   1.360       .  A
C1695      N1700   1.371       .  A
N1696      C1697   1.353       .  A
C1697      N1698   1.345       .  A
C1697      C1777   1.464       .  S
N1698      C1699   1.350       .  A
C1699      N1700   1.365       .  A
C1699      C1748   1.468       .  S
C1701      C1768   1.496       .  S
C1701      C1702   1.420       .  A
C1701      C1706   1.419       .  A
C1702      C1840   1.492       .  S
C1702      C1703   1.419       .  A
C1703      C1792   1.500       .  S
C1703      C1704   1.417       .  A
C1704      C1753   1.488       .  S
C1704      C1705   1.417       .  A
C1705      C1825   1.497       .  S
C1705      C1706   1.417       .  A
C1706      C1804   1.492       .  S
O1707     Zn1713   2.006       .  S
C1708      O1724   1.274       .  A
C1708      O1721   1.274       .  A
O1709      C1722   1.273       .  A
O1709     Cd1716   2.084   1_554  S
O1710      C1728   1.276       .  A
O1711      C1725   1.276       .  A
O1711     Cd1715   2.108       .  S
O1712      C1723   1.274       .  A
Zn1713     O1724   2.010       .  S
Zn1713     O1718   1.917       .  S
O1714      C1725   1.275       .  A
O1714     Cd1719   2.048       .  S
Cd1715     O1718   2.015   1_556  S
Cd1716     O1720   2.107       .  S
Cd1716     O1729   2.038       .  S
O1717      C1727   1.275       .  A
O1718     Cd1719   2.017   1_554  S
Cd1719     O1721   2.095   1_556  S
C1722      O1726   1.274       .  A
O1730      C1746   1.271       .  A
O1730     Zn1736   2.000       .  S
C1731      O1747   1.271       .  A
C1731      O1744   1.274       .  A
O1732      C1745   1.276       .  A
O1732     Cd1739   2.100       .  S
O1733      C1751   1.274       .  A
O1733     Cd1742   2.041       .  S
O1734      C1748   1.275       .  A
O1734     Cd1738   2.050       .  S
O1735      C1746   1.275       .  A
O1735     Cd1738   2.092       .  S
Zn1736     O1747   1.999       .  S
Zn1736     O1749   1.992       .  S
Zn1736     O1741   1.912       .  S
O1737      C1748   1.275       .  A
O1737     Cd1742   2.092       .  S
Cd1738     O1740   2.101       .  S
Cd1738     O1741   2.013       .  S
Cd1739     O1743   2.054       .  S
Cd1739     O1752   2.110       .  S
Cd1739     O1741   2.019       .  S
O1740      C1750   1.276       .  A
O1741     Cd1742   2.012       .  S
Cd1742     O1744   2.094       .  S
O1743      C1750   1.276       .  A
C1745      O1749   1.272       .  A
C1751      O1752   1.277       .  A
C1753      C1754   1.401       .  A
C1753      C1758   1.420       .  A
C1754      C1755   1.401       .  A
C1754      H1763   1.084       .  S
C1755      C1756   1.417       .  A
C1755      S1759   1.803   1_655  S
C1756      C1757   1.400       .  A
C1757      C1758   1.400       .  A
C1757      H1764   1.084       .  S
C1758      S1760   1.808       .  S
S1760      H1761   1.400       .  S
C1765      C1766   1.407       .  A
C1765      C1770   1.411       .  A
C1766      C1767   1.403       .  A
C1766      H1775   1.084       .  S
C1767      C1768   1.415       .  A
C1767      S1771   1.805       .  S
C1768      C1769   1.407       .  A
C1769      C1770   1.402       .  A
C1769      H1776   1.083       .  S
C1770      S1772   1.801       .  S
S1771      H1774   1.397       .  S
S1772      H1773   1.407       .  S
C1777      C1778   1.399       .  A
C1777      C1782   1.414       .  A
C1778      C1779   1.395       .  A
C1778      H1787   1.085       .  S
C1779      C1780   1.415       .  A
C1779      S1783   1.805       .  S
C1780      C1781   1.400       .  A
C1781      C1782   1.395       .  A
C1781      H1788   1.084       .  S
C1782      S1784   1.805       .  S
S1783      H1786   1.407       .  S
S1784      H1785   1.407       .  S
C1789      C1790   1.404       .  A
C1789      C1794   1.410       .  A
C1790      C1791   1.403       .  A
C1790      H1799   1.084       .  S
C1791      C1792   1.417       .  A
C1791      S1795   1.801       .  S
C1792      C1793   1.408       .  A
C1793      C1794   1.403       .  A
C1793      H1800   1.083       .  S
C1794      S1796   1.802       .  S
S1795      H1798   1.389       .  S
S1796      H1797   1.406       .  S
C1801      C1802   1.410       .  A
C1801      C1806   1.411       .  A
C1802      C1803   1.408       .  A
C1802      H1811   1.082       .  S
C1803      C1804   1.408       .  A
C1803      S1807   1.804       .  S
C1804      C1805   1.404       .  A
C1805      C1806   1.397       .  A
C1805      H1812   1.081       .  S
C1806      S1808   1.802       .  S
S1807      H1810   1.406       .  S
S1808      H1809   1.407       .  S
C1813      C1814   1.401       .  A
C1813      C1818   1.415       .  A
C1814      C1815   1.397       .  A
C1814      H1823   1.085       .  S
C1815      C1816   1.416       .  A
C1815      S1819   1.805       .  S
C1816      C1817   1.400       .  A
C1817      C1818   1.395       .  A
C1817      H1824   1.085       .  S
C1818      S1820   1.805       .  S
S1819      H1822   1.407       .  S
S1820      H1821   1.407       .  S
C1825      C1826   1.408       .  A
C1825      C1830   1.414       .  A
C1826      C1827   1.405       .  A
C1826      H1835   1.084       .  S
C1827      C1828   1.413       .  A
C1827      S1831   1.801       .  S
C1828      C1829   1.406       .  A
C1829      C1830   1.400       .  A
C1829      H1836   1.084       .  S
C1830      S1832   1.801       .  S
S1831      H1834   1.407       .  S
S1832      H1833   1.389       .  S
C1837      C1838   1.410       .  A
C1837      C1842   1.410       .  A
C1838      C1839   1.403       .  A
C1838      H1847   1.084       .  S
C1839      C1840   1.412       .  A
C1839      S1843   1.805       .  S
C1840      C1841   1.406       .  A
C1841      C1842   1.398       .  A
C1841      H1848   1.082       .  S
C1842      S1844   1.801       .  S
S1843      H1846   1.399       .  S
S1844      H1845   1.407       .  S
C1849      C1850   1.407       .  A
C1849      C1854   1.413       .  A
C1850      C1851   1.396       .  A
C1850      H1859   1.084       .  S
C1851      C1852   1.411       .  A
C1851      S1855   1.802       .  S
C1852      C1853   1.407       .  A
C1853      C1854   1.395       .  A
C1853      H1860   1.084       .  S
C1854      S1856   1.803       .  S
S1856      H1857   1.407       .  S
C1861      C1866   1.416       .  A
C1862      C1863   1.403       .  A
C1862      H1871   1.083       .  S
C1863      S1867   1.807       .  S
C1864      C1865   1.402       .  A
C1865      C1866   1.403       .  A
C1865      H1872   1.081       .  S
C1866      S1868   1.803       .  S
S1867      H1870   1.403       .  S
S1868      H1869   1.407       .  S
C1873      C1874   1.398       .  A
C1873      C1878   1.417       .  A
C1874      C1875   1.401       .  A
C1874      H1883   1.084       .  S
C1875      C1876   1.422       .  A
C1875      S1879   1.807       .  S
C1876      C1877   1.401       .  A
C1877      C1878   1.403       .  A
C1877      H1884   1.084       .  S
C1878      S1880   1.803       .  S
S1879      H1882   1.394       .  S
S1880      H1881   1.407       .  S
C1885      C1890   1.416   1_655  A
C1886      C1887   1.398       .  A
C1886      H1895   1.086       .  S
C1887      C1888   1.415       .  A
C1887      S1891   1.804       .  S
C1888      C1889   1.400       .  A
C1889      H1896   1.086       .  S
C1890      S1892   1.804       .  S
S1891      H1894   1.407       .  S
S1892      H1893   1.407       .  S
C1897      C1898   1.409       .  A
C1897      C1902   1.412       .  A
C1898      C1899   1.404       .  A
C1898      H1907   1.083       .  S
C1899      C1900   1.411       .  A
C1899      S1903   1.801       .  S
C1900      C1901   1.408       .  A
C1901      C1902   1.399       .  A
C1901      H1908   1.084       .  S
C1902      S1904   1.803       .  S
S1903      H1906   1.407       .  S
S1904      H1905   1.392       .  S
C1909      C1910   1.399       .  A
C1909      C1914   1.423       .  A
C1910      C1911   1.403       .  A
C1910      H1919   1.083       .  S
C1911      C1912   1.420       .  A
C1911      S1915   1.807       .  S
C1912      C1913   1.399       .  A
C1913      C1914   1.400       .  A
C1913      H1920   1.084       .  S
C1914      S1916   1.809       .  S
S1915      H1918   1.407       .  S
C1921      C1922   1.402       .  A
C1921      C1926   1.412       .  A
C1922      C1923   1.399       .  A
C1922      H1931   1.085       .  S
C1923      C1924   1.414       .  A
C1923      S1927   1.809       .  S
C1924      C1925   1.401       .  A
C1925      C1926   1.390       .  A
C1925      H1932   1.084       .  S
C1926      S1928   1.805       .  S
S1927      H1930   1.407       .  S
S1928      H1929   1.407       .  S
C1933      C1934   1.407       .  A
C1933      C1938   1.410       .  A
C1934      C1935   1.403       .  A
C1934      H1943   1.085       .  S
C1935      C1936   1.414       .  A
C1935      S1939   1.802       .  S
C1936      C1937   1.409       .  A
C1937      C1938   1.404       .  A
C1937      H1944   1.085       .  S
C1938      S1940   1.802       .  S
S1939      H1942   1.394       .  S
S1940      H1941   1.406       .  S
C1945      C1950   1.407       .  A
C1946      H1955   1.081       .  S
C1947      C1948   1.410       .  A
C1948      C1949   1.409       .  A
C1949      C1950   1.407       .  A
C1949      H1956   1.081       .  S
C1950      S1952   1.803       .  S
S1951      H1954   1.407       .  S
S1952      H1953   1.406       .  S
C1957      C1958   1.405       .  A
C1957      C1962   1.410       .  A
C1958      H1967   1.085       .  S
C1959      C1960   1.411       .  A
C1959      S1963   1.804       .  S
C1960      C1961   1.404       .  A
C1961      H1968   1.085       .  S
C1962      S1964   1.804       .  S
S1963      H1966   1.407       .  S
S1964      H1965   1.407       .  S
C1969      C1970   1.406       .  A
C1969      C1974   1.410       .  A
C1970      C1971   1.408       .  A
C1970      H1979   1.083       .  S
C1971      C1972   1.411       .  A
C1971      S1975   1.801       .  S
C1972      C1973   1.406       .  A
C1973      C1974   1.400       .  A
C1973      H1980   1.084       .  S
C1974      S1976   1.803       .  S
S1975      H1978   1.407       .  S
S1976      H1977   1.406       .  S
C1981      C1982   1.399       .  A
C1981      C1986   1.419       .  A
C1982      C1983   1.397       .  A
C1982      H1991   1.084       .  S
C1983      C1984   1.418       .  A
C1983      S1987   1.806       .  S
C1984      C1985   1.401       .  A
C1985      C1986   1.402       .  A
C1985      H1992   1.084       .  S
C1986      S1988   1.804       .  S
S1987      H1990   1.395       .  S
C1993      C1994   1.408       .  A
C1993      C1998   1.411       .  A
C1994      C1995   1.393       .  A
C1994      H2003   1.083       .  S
C1995      C1996   1.411       .  A
C1996      C1997   1.407       .  A
C1997      C1998   1.397       .  A
C1997      H2004   1.084       .  S
C1998      S2000   1.803       .  S
S1999      H2002   1.407       .  S
S2000      H2001   1.407       .  S
C2005      C2006   1.399       .  A
C2005      C2010   1.415       .  A
C2006      C2007   1.402       .  A
C2006      H2015   1.084       .  S
C2007      C2008   1.420       .  A
C2008      C2009   1.400       .  A
C2009      C2010   1.402       .  A
C2009      H2016   1.083       .  S
C2010      S2012   1.803       .  S
S2011      H2014   1.407       .  S
S2012      H2013   1.406       .  S
C2017      C2018   1.407       .  A
C2017      C2022   1.412       .  A
C2018      C2019   1.402       .  A
C2018      H2027   1.084       .  S
C2019      C2020   1.414       .  A
C2019      S2023   1.798       .  S
C2020      C2021   1.408       .  A
C2021      C2022   1.405       .  A
C2021      H2028   1.084       .  S
C2022      S2024   1.801       .  S
S2023      H2026   1.392       .  S
S2024      H2025   1.407       .  S
C2029      C2030   1.408       .  A
C2029      C2034   1.412       .  A
C2030      C2031   1.395       .  A
C2030      H2039   1.084       .  S
C2031      C2032   1.410       .  A
C2031      S2035   1.805       .  S
C2032      C2033   1.406       .  A
C2033      C2034   1.394       .  A
C2033      H2040   1.084       .  S
C2034      S2036   1.802       .  S
S2035      H2038   1.407       .  S
S2036      H2037   1.407       .  S
C2041      C2042   1.399       .  A
C2041      C2046   1.420       .  A
C2042      C2043   1.403       .  A
C2042      H2051   1.083       .  S
C2043      C2044   1.416       .  A
C2043      S2047   1.804       .  S
C2044      C2045   1.401       .  A
C2045      C2046   1.399       .  A
C2045      H2052   1.084       .  S
C2046      S2048   1.809       .  S
S2047      H2050   1.407       .  S
S2048      H2049   1.396       .  S
C2053      C2054   1.400       .  A
C2053      C2058   1.417       .  A
C2054      C2055   1.401       .  A
C2054      H2063   1.084       .  S
C2055      C2056   1.417       .  A
C2055      S2059   1.805       .  S
C2056      C2057   1.401       .  A
C2057      C2058   1.404       .  A
C2057      H2064   1.084       .  S
C2058      S2060   1.801       .  S
S2059      H2062   1.403       .  S
S2060      H2061   1.406       .  S
C2065      C2066   1.405       .  A
C2065      C2070   1.407       .  A
C2066      C2067   1.397       .  A
C2066      H2075   1.084       .  S
C2067      C2068   1.410       .  A
C2067      S2071   1.801       .  S
C2068      C2069   1.405       .  A
C2069      C2070   1.392       .  A
C2069      H2076   1.085       .  S
C2070      S2072   1.801       .  S
S2071      H2074   1.406       .  S
S2072      H2073   1.407       .  S
