geometry optimzed in LAMMPS
_audit_creation_date              2020-11-30 
_audit_creation_method            'lammps2cif' 
_symmetry_space_group_name_H-M    'P1' 
_symmetry_Int_Tables_number       1 
_symmetry_cell_setting            triclinic 
loop_ 
_symmetry_equiv_pos_as_xyz 
  x,y,z 
_cell_length_a                    35.47624653 
_cell_length_b                    32.929395623613566 
_cell_length_c                    58.75247273008773 
_cell_angle_alpha                 88.02116775032866 
_cell_angle_beta                  90.47252832864889 
_cell_angle_gamma                 118.40590806425152 
loop_ 
_atom_site_label 
_atom_site_type_symbol 
_atom_site_fract_x 
_atom_site_fract_y 
_atom_site_fract_z 
_atom_site_charge 
C1          C  0.11540986  0.51154893  0.10144895     0.80000
N2          N  0.11928451  0.47232024  0.10278972    -0.78300
C3          C  0.13856047  0.46400862  0.12091216     0.82500
N4          N  0.15428144  0.49508946  0.13763866    -0.78200
C5          C  0.14867611  0.03262511  0.13650628     0.82600
N6          N  0.12628754  0.03852352  0.11888341    -0.79900
C7          C  0.19371534  0.08298814  0.19202406     0.80000
N8          N  0.17504833  0.05235813  0.17532792    -0.78300
C9          C  0.16804342  0.06659047  0.15453303     0.82500
N10         N  0.18203690  0.11227553  0.15024528    -0.78200
C11         C  0.20270529  0.14372735  0.16658911     0.82600
N12         N  0.20797166  0.12889644  0.18763251    -0.79900
C13         C  0.45165873  0.08872328  0.09722977     0.80000
N14         N  0.48561806  0.13122169  0.10025566    -0.78300
C15         C  0.49821842  0.14673297  0.12157508     0.82500
N16         N  0.47682824  0.11860935  0.14003387    -0.78200
C17         C  0.44235888  0.07598857  0.13722501     0.82600
N18         N  0.43055069  0.06135027  0.11571651    -0.79900
C19         C  0.39540754  0.03574755  0.19571584     0.80000
N20         N  0.36606164  0.48878619  0.19294812    -0.78300
C21         C  0.36189007  0.47071235  0.17201706     0.82500
N22         N  0.38567531  0.49947065  0.15424865    -0.78200
C23         C  0.41814283  0.04490004  0.15718575     0.82600
N24         N  0.42049878  0.06278998  0.17802556    -0.79900
C25         C  0.44883585  0.27782450  0.19332306     0.80000
N26         N  0.42569434  0.28236787  0.17566364    -0.78300
C27         C  0.44262184  0.29372772  0.15422629     0.82500
N28         N  0.48271281  0.29995083  0.15058354    -0.78200
C29         C  0.00549639  0.29867602  0.16740266     0.82600
N30         N  0.48910063  0.28433088  0.18939407    -0.79900
C31         C  0.41040703  0.30827156  0.09524084     0.80000
N32         N  0.43370312  0.30546410  0.11318535    -0.78300
C33         C  0.41737307  0.29745825  0.13476510     0.82500
N34         N  0.37826146  0.29434867  0.13829403    -0.78200
C35         C  0.35520183  0.29831904  0.12048748     0.82600
N36         N  0.37133091  0.30503138  0.09902996    -0.79900
Zr37       Zr  0.25095215  0.30679769  0.16621540     2.17500
O38         O  0.27846143  0.30298646  0.20392172    -0.51500
O39         O  0.30655909  0.30142619  0.14586728    -0.74700
O40         O  0.23514914  0.22558303  0.17512124    -0.81500
O41         O  0.29527792  0.43940865  0.15590650    -0.83300
O42         O  0.20374509  0.20093551  0.14205607    -0.78900
O43         O  0.31203968  0.38708140  0.17312527    -0.90500
O44         O  0.29333585  0.30334055  0.10791971    -0.76500
O45         O  0.21805064  0.26211748  0.13360970    -0.86000
O46         O  0.25992149  0.35618165  0.13373670    -0.85700
O47         O  0.17541614  0.25785158  0.17546942    -0.72400
O48         O  0.21444476  0.34910138  0.17655739    -0.84600
Zr49       Zr  0.11666833  0.30760193  0.12098618     2.26400
Zr50       Zr  0.14372027  0.21488458  0.14181612     2.06300
Zr51       Zr  0.22326423  0.39766768  0.14354545     2.10000
Zr52       Zr  0.22796967  0.31084821  0.10171741     1.78800
O53         O  0.23087941  0.45129861  0.17298539    -0.93400
O54         O  0.21595040  0.24343232  0.08049164    -0.41200
O55         O  0.19129164  0.35405688  0.11061688    -0.77800
O56         O  0.15189080  0.26451704  0.10946203    -0.96500
O57         O  0.10817013  0.25674545  0.15232734    -0.89800
O58         O  0.14966094  0.35199627  0.15349532    -0.92600
C59         C  0.31553342  0.30071003  0.12490591     1.01100
C60         C  0.32090472  0.42910745  0.16677746     1.14100
C61         C  0.21582763  0.19269054  0.16116046     1.04800
O62         O  0.12439928  0.15669952  0.11312314    -0.94800
O63         O  0.06768684  0.17668425  0.13515930    -0.90500
O64         O  0.05280222  0.22975492  0.11718371    -0.83700
C65         C  0.04201232  0.18827540  0.12502004     1.11500
O66         O  0.15881190  0.29462464  0.22403179    -0.96800
Zr67       Zr  0.13910250  0.30060637  0.18475503     1.88900
O68         O  0.05860267  0.30637624  0.14204735    -0.73400
O69         O  0.11732385  0.15294588  0.17096724    -0.52700
O70         O  0.08859574  0.22714393  0.20295489    -0.97400
O71         O  0.14259345  0.36157678  0.20847375    -0.54600
O72         O  0.06947875  0.29863819  0.17985669    -0.73900
C73         C  0.04740280  0.30173664  0.16301320     0.98400
O74         O  0.09237135  0.31000719  0.08232461    -0.62700
O75         O  0.26256887  0.45591407  0.11380541    -0.57500
O76         O  0.12129057  0.38487509  0.11525153    -0.94200
O77         O  0.18401698  0.43588776  0.13140924    -0.92700
O78         O  0.28358053  0.38062824  0.08290031    -0.93000
O79         O  0.21538141  0.32110218  0.06162726    -0.91800
C80         C  0.14826739  0.42552897  0.12196287     1.17300
H81         H  0.28979533  0.37642047  0.13021169     0.33200
H82         H  0.13737172  0.24645731  0.09649006     0.44100
H83         H  0.13686733  0.37090530  0.15757659     0.37600
H84         H  0.17232228  0.23702183  0.18814914     0.34100
H85         H  0.21876245  0.22223589  0.09191649     0.25800
H86         H  0.09823379  0.15931402  0.18069933     0.31800
H87         H  0.06192618  0.21644105  0.19404646     0.37700
H88         H  0.30254578  0.37062840  0.07540217     0.32200
H89         H  0.27483019  0.48572084  0.12154678     0.31000
H90         H  0.22179713  0.43219759  0.18728043     0.32700
H91         H  0.11614182  0.34656051  0.21791421     0.31700
H92         H  0.20094732  0.34048797  0.06156425     0.35700
H93         H  0.10084007  0.29021101  0.07375169     0.28400
H94         H  0.25272647  0.28175251  0.21298085     0.32600
H95         H  0.18949170  0.30283696  0.22316442     0.35500
H96         H  0.28762272  0.45157589  0.11023986     0.28100
H97         H  0.06071351  0.29232638  0.08330027     0.41000
H98         H  0.11849507  0.12792404  0.12177317     0.31000
H99         H  0.18514946  0.22794959  0.07662595     0.38700
H100        H  0.13804856  0.38294247  0.19794965     0.30500
H101        H  0.09769510  0.12483797  0.16286478     0.30600
H102        H  0.28747338  0.33364401  0.21031320     0.30800
Zr103      Zr  0.31503387  0.12887742  0.35701660     2.17500
O104        O  0.31517993  0.10215251  0.39634147    -0.51500
O105        O  0.28809311  0.17330578  0.37759953    -0.74700
O106        O  0.38394210  0.16770095  0.37538290    -0.81500
O107        O  0.20087685  0.04509034  0.35033148    -0.83300
O108        O  0.43881774  0.20479280  0.35000080    -0.78900
O109        O  0.25877322  0.05517013  0.37039502    -0.90500
O110        O  0.28291438  0.22379966  0.35217038    -0.76500
O111        O  0.35141139  0.20058899  0.33615634    -0.86000
O112        O  0.25997518  0.13384312  0.33559732    -0.85700
O113        O  0.36922473  0.12335889  0.33479163    -0.72400
O114        O  0.28534378  0.06187067  0.33401777    -0.84600
Zr115      Zr  0.32093321  0.13316842  0.26829904     2.26400
Zr116      Zr  0.40428637  0.19501512  0.31274742     2.06300
Zr117      Zr  0.23148061  0.06839593  0.31167655     2.10000
Zr118      Zr  0.29633173  0.20470187  0.31444245     1.78800
O119        O  0.19864434  0.98554577  0.30632614    -0.93400
O120        O  0.34489273  0.28730768  0.31632798    -0.41200
O121        O  0.26740292  0.13992522  0.29017611    -0.77800
O122        O  0.34931293  0.20039473  0.29108578    -0.96500
O123        O  0.37551583  0.12848774  0.28978266    -0.89800
O124        O  0.28435336  0.06161730  0.28929077    -0.92600
C125        C  0.28022389  0.20671799  0.37242477     1.01100
C126        C  0.21846732  0.04052201  0.36875431     1.14100
C127        C  0.42384115  0.19172775  0.37035137     1.04800
O128        O  0.44231885  0.27798778  0.31804487    -0.94800
O129        O  0.43406612  0.22891005  0.27433487    -0.90500
O130        O  0.38121464  0.19337825  0.24850494    -0.83700
C131        C  0.41906641  0.22355932  0.25386077     1.11500
O132        O  0.34648541  0.01807006  0.34542247    -0.96800
Zr133      Zr  0.33908755  0.05761857  0.31117991     1.88900
O134        O  0.34934142  0.08989311  0.24805667    -0.73400
O135        O  0.47042348  0.19099106  0.30731956    -0.52700
O136        O  0.41048692  0.06440232  0.31264907    -0.97400
O137        O  0.29295199  0.97442719  0.30905918    -0.54600
O138        O  0.35158005  0.03745837  0.27341038    -0.73900
C139        C  0.35586955  0.05551444  0.25323882     0.98400
O140        O  0.30799932  0.17034917  0.23470444    -0.62700
O141        O  0.15750035  0.05427373  0.31152185    -0.57500
O142        O  0.25551482  0.08047883  0.25047193    -0.94200
O143        O  0.20438424  0.07682500  0.27417430    -0.92700
O144        O  0.22420831  0.19542990  0.31102412    -0.93000
O145        O  0.28871857  0.25101609  0.28335198    -0.91800
C146        C  0.21872847  0.07701103  0.25413707     1.17300
H147        H  0.23739086  0.13314848  0.34498116     0.33200
H148        H  0.36152164  0.22811830  0.28152515     0.44100
H149        H  0.27132028  0.03560539  0.27950433     0.37600
H150        H  0.38929971  0.11922622  0.34448646     0.34100
H151        H  0.35098622  0.29304683  0.33271702     0.23400
H152        H  0.49353907  0.22213375  0.31090127     0.31800
H153        H  0.42817329  0.09115150  0.30234293     0.37700
H154        H  0.20859350  0.16783996  0.30173107     0.32200
H155        H  0.14019919  0.02160632  0.31674943     0.31000
H156        H  0.18511801  0.98120684  0.29116706     0.32700
H157        H  0.29172339  0.46900212  0.30272894     0.31700
H158        H  0.29278221  0.23752708  0.26937687     0.35700
H159        H  0.29926820  0.14770304  0.22249321     0.28400
H160        H  0.32712410  0.12988373  0.40573517     0.32600
H161        H  0.35464977  0.99515603  0.34001134     0.35500
H162        H  0.15549815  0.07244849  0.32409179     0.28100
H163        H  0.28192636  0.17268377  0.23839073     0.41000
H164        H  0.47004873  0.28890047  0.30999333     0.31000
H165        H  0.37219331  0.29164770  0.30972691     0.38700
H166        H  0.27142121  0.96655474  0.32135683     0.30500
H167        H  0.47089782  0.17061459  0.31998413     0.30600
H168        H  0.33668791  0.09104568  0.39687055     0.30800
C169        C  0.22336434  0.45086531  0.52590075     0.80000
N170        N  0.20283921  0.46173738  0.50904907    -0.78300
C171        C  0.21787317  0.46970667  0.48735413     0.82500
N172        N  0.25401926  0.46630507  0.48266987    -0.78200
C173        C  0.27403141  0.45369803  0.49938682     0.82600
N174        N  0.25857180  0.44633469  0.52102269    -0.79900
C175        C  0.19168683  0.50096521  0.43031065     0.80000
N176        N  0.21117316  0.49003418  0.44757875    -0.78300
C177        C  0.19536571  0.48228908  0.46903623     0.82500
N178        N  0.15888071  0.48548164  0.47307574    -0.78200
C179        C  0.13949639  0.49787278  0.45581942     0.82600
N180        N  0.15608900  0.50531409  0.43440634    -0.79900
C181        C  0.15630154  0.22841273  0.51827872     0.80000
N182        N  0.12289576  0.18524077  0.51661194    -0.78300
C183        C  0.11967129  0.15989826  0.49837164     0.82500
N184        N  0.15014309  0.17751671  0.48169244    -0.78200
C185        C  0.18375906  0.22042049  0.48307754     0.82600
N186        N  0.18652887  0.24625487  0.50136752    -0.79900
C187        C  0.24625521  0.23339135  0.42971732     0.80000
N188        N  0.21486406  0.21435488  0.44614215    -0.78300
C189        C  0.21682213  0.23905613  0.46483716     0.82500
N190        N  0.25079981  0.28135604  0.46725796    -0.78200
C191        C  0.28211983  0.30007429  0.45117319     0.82600
N192        N  0.27966185  0.27621236  0.43247054    -0.79900
C193        C  0.43445913  0.22832526  0.53188132     0.80000
N194        N  0.44212534  0.20933269  0.51346868    -0.78300
C195        C  0.43551936  0.22103527  0.49206725     0.82500
N196        N  0.42146307  0.25283415  0.48922367    -0.78200
C197        C  0.41356168  0.27269823  0.50740403     0.82600
N198        N  0.42111604  0.26082202  0.52877507    -0.79900
C199        C  0.45679602  0.20297941  0.43227913     0.80000
N200        N  0.47450318  0.17423500  0.43516603    -0.78300
C201        C  0.97946189  0.16198165  0.44820431     0.82500
N202        N  0.97042463  0.17618616  0.46816337    -0.78200
C203        C  0.95449914  0.20685454  0.46790464     0.82600
N204        N  0.44435169  0.21759112  0.45074050    -0.79900
Zr205      Zr  0.38529775  0.40552960  0.49927671     2.17500
O206        O  0.35183790  0.37342798  0.53624674    -0.51500
O207        O  0.32768845  0.35154455  0.47710805    -0.74700
O208        O  0.32589319  0.42562819  0.50423348    -0.81500
O209        O  0.45577886  0.34600003  0.49379772    -0.83300
O210        O  0.34123844  0.48966573  0.48194510    -0.78900
O211        O  0.39080309  0.33264128  0.50751298    -0.90500
O212        O  0.34765839  0.36467900  0.43970221    -0.76500
O213        O  0.38168708  0.44751572  0.46628044    -0.86000
O214        O  0.42237548  0.39371300  0.46861184    -0.85700
O215        O  0.41903176  0.48544061  0.50942965    -0.72400
O216        O  0.45815534  0.43407290  0.51166137    -0.84600
Zr217      Zr  0.02305631  0.04109361  0.45547215     2.26400
Zr218      Zr  0.41393491  0.02185917  0.47476115     2.06300
Zr219      Zr  0.49505023  0.42358275  0.48025843     2.10000
Zr220      Zr  0.41719603  0.43433428  0.43582035     1.78800
O221        O  0.03685607  0.40456896  0.50874603    -0.93400
O222        O  0.37045780  0.45512194  0.41336682    -0.41200
O223        O  0.49120528  0.46355127  0.44625050    -0.77800
O224        O  0.44854279  0.00939503  0.44278398    -0.96500
O225        O  0.48657085  0.05123649  0.48517463    -0.89800
O226        O  0.02842285  0.50102333  0.48942671    -0.92600
C227        C  0.32144854  0.34193854  0.45609146     1.01100
C228        C  0.41945545  0.31989504  0.50300287     1.14100
C229        C  0.31599077  0.45560618  0.49480120     1.04800
O230        O  0.39233405  0.04960934  0.44069539    -0.94800
O231        O  0.47280334  0.09766895  0.47860047    -0.90500
O232        O  0.01287602  0.11202210  0.45349883    -0.83700
C233        C  0.48952792  0.12166149  0.46058023     1.11500
O234        O  0.46695316  0.49450170  0.55961025    -0.96800
Zr235      Zr  0.49454862  0.01577444  0.51867283     1.88900
O236        O  0.08048608  0.09743514  0.47622624    -0.73400
O237        O  0.39217497  0.07266645  0.49337480    -0.52700
O238        O  0.48215276  0.07236982  0.53835063    -0.97400
O239        O  0.03417612  0.49248294  0.54515375    -0.54600
O240        O  0.05232779  0.09834675  0.51074278    -0.73900
C241        C  0.08183753  0.11551537  0.49522726     0.98400
O242        O  0.05417929  0.07641415  0.41850265    -0.62700
O243        O  0.50590472  0.37957368  0.45092882    -0.57500
O244        O  0.08419927  0.02208222  0.45146471    -0.94200
O245        O  0.07119008  0.45839027  0.47143427    -0.92700
O246        O  0.42802281  0.37628369  0.41661598    -0.93000
O247        O  0.44015468  0.45519590  0.39627890    -0.91800
C248        C  0.09646033  0.49402952  0.45954352     1.17300
H249        H  0.40998722  0.36150660  0.46506291     0.33200
H250        H  0.44681417  0.02582700  0.42920125     0.44100
H251        H  0.05708142  0.02040107  0.49655022     0.37600
H252        H  0.40310647  0.48979353  0.52148342     0.34100
H253        H  0.35193178  0.42711984  0.40488308     0.25800
H254        H  0.36826291  0.07196645  0.48427645     0.31800
H255        H  0.99084326  0.10544474  0.53582923     0.37700
H256        H  0.40058086  0.35707417  0.40889511     0.32200
H257        H  0.02861860  0.37324974  0.45429885     0.31000
H258        H  0.04864626  0.38698143  0.50078685     0.32700
H259        H  0.06638362  0.03686241  0.53724508     0.31700
H260        H  0.46796751  0.48378432  0.39706767     0.35700
H261        H  0.04188565  0.05061552  0.40790109     0.28400
H262        H  0.37339022  0.36829801  0.54487103     0.32600
H263        H  0.49801563  0.01824398  0.56742672     0.35500
H264        H  0.47678181  0.35493537  0.44737977     0.28100
H265        H  0.04057970  0.09573502  0.41420508     0.41000
H266        H  0.36959016  0.53900217  0.43870148     0.31000
H267        H  0.35097161  0.45734040  0.42462991     0.38700
H268        H  0.05533261  0.49004765  0.53520153     0.30500
H269        H  0.37908802  0.05691244  0.50810715     0.30600
H270        H  0.32871708  0.34200629  0.53308729     0.30800
C271        C  0.25224093  0.37326746  0.75600653     0.80000
N272        N  0.24126674  0.32822265  0.76053735    -0.78300
C273        C  0.24426728  0.31340785  0.78185654     0.82500
N274        N  0.26103277  0.34475719  0.79855150    -0.78200
C275        C  0.27258225  0.38997004  0.79455807     0.82600
N276        N  0.26767592  0.40434818  0.77307368    -0.79900
C277        C  0.32961820  0.44462955  0.84841426     0.80000
N278        N  0.32438527  0.48292710  0.84815081    -0.78300
C279        C  0.30341933  0.49133562  0.83087787     0.82500
N280        N  0.28736881  0.46134542  0.81361778    -0.78200
C281        C  0.29224004  0.42301542  0.81333875     0.82600
N282        N  0.31346541  0.41453017  0.83095944    -0.79900
C283        C  0.04611308  0.43349573  0.76123110     0.80000
N284        N  0.07418108  0.47748012  0.76689347    -0.78300
C285        C  0.07999287  0.48967768  0.78899973     0.82500
N286        N  0.05723778  0.45679001  0.80552769    -0.78200
C287        C  0.02791569  0.41281155  0.80016491     0.82600
N288        N  0.02308376  0.40128826  0.77791380    -0.79900
C289        C  0.49286865  0.35148291  0.86080392     0.80000
N290        N  0.46078543  0.30924604  0.85542014    -0.78300
C291        C  0.45192439  0.29775862  0.83333037     0.82500
N292        N  0.47510260  0.32988053  0.81647820    -0.78200
C293        C  0.00459720  0.37720550  0.81872971     0.82600
N294        N  0.01523619  0.38853294  0.84069598    -0.79900
C295        C  0.03869579  0.14422194  0.86128107     0.80000
N296        N  0.07845748  0.14877384  0.85782399    -0.78300
C297        C  0.09459751  0.15478737  0.83634041     0.82500
N298        N  0.07057247  0.15593103  0.81833497    -0.78200
C299        C  0.03085781  0.15128648  0.82165564     0.82600
N300        N  0.01491614  0.14475424  0.84316553    -0.79900
C301        C  0.48408429  0.13737014  0.76192040     0.80000
N302        N  0.51010007  0.13873954  0.77947003    -0.78300
C303        C  0.49560400  0.13233588  0.80137913     0.82500
N304        N  0.45544738  0.12565251  0.80549847    -0.78200
C305        C  0.42946559  0.12434674  0.78810615     0.82600
N306        N  0.44394778  0.13035331  0.76639553    -0.79900
Zr307      Zr  0.19937064  0.14792546  0.79024881     2.17500
O308        O  0.17056397  0.15005204  0.75272448    -0.51500
O309        O  0.14403468  0.15318825  0.81100884    -0.74700
O310        O  0.13755416  0.06953038  0.78305534    -0.81500
O311        O  0.28144683  0.27746383  0.79397047    -0.83300
O312        O  0.14108790  0.02242666  0.81118205    -0.78900
O313        O  0.21440599  0.22964949  0.78115800    -0.90500
O314        O  0.15936430  0.15532527  0.84879974    -0.76500
O315        O  0.18843404  0.10407570  0.82510703    -0.86000
O316        O  0.24044525  0.19854641  0.81949655    -0.85700
O317        O  0.22488643  0.09330036  0.78333220    -0.72400
O318        O  0.27257455  0.18290748  0.77685950    -0.84600
Zr319      Zr  0.33061574  0.14022307  0.83461936     2.26400
Zr320      Zr  0.21591740  0.05206165  0.81910941     2.06300
Zr321      Zr  0.31325116  0.23284087  0.80652043     2.10000
Zr322      Zr  0.22847868  0.15501029  0.85389560     1.78800
O323        O  0.34860078  0.28065857  0.77276376    -0.93400
O324        O  0.17928683  0.09375442  0.88002203    -0.41200
O325        O  0.30312163  0.19225777  0.84230712    -0.77800
O326        O  0.25714513  0.10273344  0.84847842    -0.96500
O327        O  0.28821036  0.08794693  0.80641453    -0.89800
O328        O  0.33997638  0.18116759  0.79921436    -0.92600
C329        C  0.13553780  0.15485993  0.83195652     1.01100
C330        C  0.24595214  0.27014542  0.78543769     1.14100
C331        C  0.12228262  0.03010653  0.79426709     1.04800
O332        O  0.18256868  0.00619471  0.85368294    -0.94800
O333        O  0.25708295  0.01254899  0.82619031    -0.90500
O334        O  0.32264300  0.06185732  0.84017746    -0.83700
C335        C  0.29406956  0.02176542  0.83379226     1.11500
O336        O  0.27350462  0.12181351  0.73223235    -0.96800
Zr337      Zr  0.29852502  0.12842852  0.77131526     1.88900
O338        O  0.38399935  0.13180292  0.81381086    -0.73400
O339        O  0.18806994  0.98255361  0.79668962    -0.52700
O340        O  0.27763086  0.05258452  0.75637448    -0.97400
O341        O  0.34890185  0.18680485  0.74451490    -0.54600
O342        O  0.36384299  0.12115011  0.77660541    -0.73900
C343        C  0.38937924  0.12484803  0.79310104     0.98400
O344        O  0.35757958  0.14001706  0.87289409    -0.62700
O345        O  0.33795560  0.29658653  0.83243238    -0.57500
O346        O  0.39532152  0.21814348  0.83868293    -0.94200
O347        O  0.38836496  0.26802915  0.81348229    -0.92700
O348        O  0.24325785  0.22881960  0.86930721    -0.93000
O349        O  0.25222980  0.16383415  0.89329125    -0.91800
C350        C  0.40983698  0.25808047  0.82797307     1.17300
H351        H  0.23134454  0.22114183  0.82249960     0.33200
H352        H  0.25511704  0.08534351  0.86241673     0.44100
H353        H  0.36951318  0.19712564  0.79415334     0.37600
H354        H  0.20774009  0.07227659  0.77182001     0.34100
H355        H  0.15452605  0.07385973  0.87054646     0.25800
H356        H  0.21076445  0.49439805  0.78417528     0.31800
H357        H  0.28593965  0.03642569  0.76829166     0.37700
H358        H  0.21640396  0.22264393  0.87720187     0.32200
H359        H  0.35298047  0.32484397  0.82257943     0.31000
H360        H  0.36358303  0.31267899  0.77813106     0.32700
H361        H  0.37767055  0.19294937  0.74975245     0.31700
H362        H  0.28391217  0.18047492  0.89223679     0.35700
H363        H  0.33359227  0.13509562  0.88309688     0.28400
H364        H  0.19436835  0.17603875  0.74429844     0.32600
H365        H  0.25348374  0.13488907  0.73220151     0.35500
H366        H  0.31160227  0.29695204  0.83754289     0.28100
H367        H  0.35961090  0.11111369  0.87459277     0.41000
H368        H  0.15744686  0.97810940  0.84830811     0.31000
H369        H  0.19324253  0.07460275  0.88386921     0.38700
H370        H  0.34741989  0.21527142  0.74779530     0.30500
H371        H  0.21350043  0.98096606  0.79099151     0.30600
H372        H  0.14935963  0.16093861  0.75536757     0.30800
Zr373      Zr  0.47212760  0.47608787  0.93271558     2.17500
O374        O  0.03885980  0.51120186  0.90097355    -0.51500
O375        O  0.41238364  0.45667245  0.90660312    -0.74700
O376        O  0.47367940  0.41212289  0.91501457    -0.81500
O377        O  0.02192799  0.11086834  0.94217799    -0.83300
O378        O  0.45138551  0.35030534  0.93974860    -0.78900
O379        O  0.00601310  0.05785386  0.91482185    -0.90500
O380        O  0.35671650  0.44780177  0.92874133    -0.76500
O381        O  0.41259355  0.41176595  0.95014130    -0.86000
O382        O  0.42957445  0.99749550  0.95158688    -0.85700
O383        O  0.50312419  0.44156297  0.95818730    -0.72400
O384        O  0.03222050  0.03692125  0.95813336    -0.84600
Zr385      Zr  0.45371189  0.46359132  0.02119381     2.26400
Zr386      Zr  0.44247797  0.37786975  0.97660865     2.06300
Zr387      Zr  0.47770888  0.05276547  0.97758374     2.10000
Zr388      Zr  0.37485096  0.44449086  0.96872057     1.78800
O389        O  0.05374209  0.13965522  0.98568937    -0.93400
O390        O  0.31819274  0.36635470  0.96220543    -0.41200
O391        O  0.41942078  0.98806499  0.99664182    -0.77800
O392        O  0.40294451  0.40925823  0.99558422    -0.96500
O393        O  0.49202889  0.43163224  0.00250427    -0.89800
O394        O  0.02345054  0.03312540  0.00292155    -0.92600
C395        C  0.37417612  0.45069790  0.90926565     1.01100
C396        C  0.02071424  0.09930682  0.92140044     1.14100
C397        C  0.46464218  0.37032621  0.92004769     1.04800
O398        O  0.37730852  0.30609757  0.97003861    -0.94800
O399        O  0.41739744  0.33629400  0.01354176    -0.90500
O400        O  0.43951626  0.39170908  0.03994414    -0.83700
C401        C  0.42319478  0.34963850  0.03421570     1.11500
O402        O  0.12155725  0.52830098  0.95260742    -0.96800
Zr403      Zr  0.06691295  0.50638425  0.98216132     1.88900
O404        O  0.51484500  0.48491366  0.04646605    -0.73400
O405        O  0.48476271  0.33869945  0.98477301    -0.52700
O406        O  0.10174369  0.45810877  0.98151117    -0.97400
O407        O  0.12255259  0.07879734  0.98972013    -0.54600
O408        O  0.08810876  0.50375773  0.02137656    -0.73900
C409        C  0.07201777  0.50244259  0.04103298     0.98400
O410        O  0.39971475  0.44144949  0.05124986    -0.62700
O411        O  0.42777014  0.08231101  0.96901335    -0.57500
O412        O  0.45486963  0.02027254  0.04093478    -0.94200
O413        O  0.47226478  0.08015315  0.01544891    -0.92700
O414        O  0.33650854  0.97939001  0.96997935    -0.93000
O415        O  0.31601124  0.42114633  0.99581721    -0.91800
C416        C  0.46291525  0.06166906  0.03573318     1.17300
H417        H  0.41912865  0.01236792  0.94071727     0.33200
H418        H  0.37920644  0.38517416  0.00415416     0.44100
H419        H  0.04097761  0.05526230  0.01396346     0.37600
H420        H  0.03285529  0.44110878  0.94737174     0.34100
H421        H  0.29505465  0.37058558  0.95481688     0.25800
H422        H  0.46568529  0.30608178  0.98110166     0.31800
H423        H  0.08619056  0.43325597  0.99315430     0.37700
H424        H  0.31496863  0.47686279  0.95767655     0.32200
H425        H  0.41169111  0.07764289  0.98340917     0.31000
H426        H  0.04312401  0.16254154  0.98465079     0.32700
H427        H  0.12051184  0.08488355  0.00592364     0.31700
H428        H  0.33013733  0.43416005  0.01037619     0.35700
H429        H  0.37708669  0.41001768  0.04770892     0.28400
H430        H  0.02262600  0.49555214  0.88730149     0.32600
H431        H  0.11012636  0.53813174  0.93932543     0.35500
H432        H  0.44601844  0.11619705  0.96734520     0.28100
H433        H  0.41333836  0.43727320  0.06528575     0.41000
H434        H  0.38645819  0.28197890  0.97070352     0.31000
H435        H  0.32936621  0.35482718  0.95002050     0.38700
H436        H  0.11494628  0.10027756  0.98117014     0.30500
H437        H  0.50723092  0.35035604  0.97276465     0.30600
H438        H  0.05654218  0.49607151  0.90484542     0.30800
Zr439      Zr  0.10361061  0.30418976  0.68931700     2.17500
O440        O  0.12789843  0.26652620  0.71794631    -0.51500
O441        O  0.07066417  0.33542269  0.71434180    -0.74700
O442        O  0.16282055  0.36000584  0.71019796    -0.81500
O443        O  0.99463478  0.20008772  0.68318510    -0.83300
O444        O  0.21559350  0.40425148  0.68465990    -0.78900
O445        O  0.05043881  0.23521678  0.70738263    -0.90500
O446        O  0.05865172  0.38772458  0.69370000    -0.76500
O447        O  0.12950108  0.37871080  0.67183669    -0.86000
O448        O  0.04233329  0.30213282  0.67156586    -0.85700
O449        O  0.16016474  0.31187498  0.66461623    -0.72400
O450        O  0.07858613  0.24122721  0.66412986    -0.84600
Zr451      Zr  0.09803809  0.32124584  0.60189368     2.26400
Zr452      Zr  0.18432133  0.38612102  0.64601906     2.06300
Zr453      Zr  0.01777927  0.24047122  0.64577353     2.10000
Zr454      Zr  0.06868550  0.37651196  0.65355124     1.78800
O455        O  0.98591356  0.15882706  0.63744096    -0.93400
O456        O  0.11113577  0.46015133  0.65515091    -0.41200
O457        O  0.04263471  0.31481137  0.62721902    -0.77800
O458        O  0.12349007  0.38504338  0.62704233    -0.96500
O459        O  0.15917212  0.32400964  0.62010564    -0.89800
O460        O  0.07247544  0.24709594  0.61991288    -0.92600
C461        C  0.05900794  0.36673273  0.71254009     1.01100
C462        C  0.01297658  0.20356957  0.70257402     1.14100
C463        C  0.20084337  0.39113598  0.70516216     1.04800
O464        O  0.21122627  0.46930448  0.64657230    -0.94800
O465        O  0.21424901  0.41751566  0.60786863    -0.90500
O466        O  0.15942706  0.38139192  0.58320171    -0.83700
C467        C  0.19794743  0.41078194  0.58778570     1.11500
O468        O  0.15225272  0.20863412  0.66745561    -0.96800
Zr469      Zr  0.13391668  0.25028067  0.63817529     1.88900
O470        O  0.12463408  0.28400315  0.57613821    -0.73400
O471        O  0.25570375  0.39298139  0.64395205    -0.52700
O472        O  0.20820839  0.26702538  0.63378656    -0.97400
O473        O  0.09476018  0.16686617  0.63393206    -0.54600
O474        O  0.14391279  0.23936655  0.59843561    -0.73900
C475        C  0.13881699  0.25488156  0.57899568     0.98400
O476        O  0.07806415  0.36156876  0.57247006    -0.62700
O477        O  0.43977857  0.23560122  0.65817810    -0.57500
O478        O  0.03286208  0.27126629  0.58236997    -0.94200
O479        O  0.98119401  0.23501198  0.60954509    -0.92700
O480        O  0.99643339  0.36582032  0.65858751    -0.93000
O481        O  0.04720554  0.41447851  0.62377670    -0.91800
C482        C  0.99367397  0.24685144  0.58874075     1.17300
H483        H  0.01978468  0.29608970  0.68241569     0.33200
H484        H  0.13270964  0.41354758  0.61824401     0.44100
H485        H  0.06096679  0.22286541  0.60902730     0.37600
H486        H  0.18303682  0.31150628  0.67350248     0.34100
H487        H  0.09192404  0.47004044  0.66245652     0.25800
H488        H  0.27548251  0.42631221  0.64563966     0.31800
H489        H  0.22334733  0.28618224  0.64685142     0.37700
H490        H  0.97826429  0.33213030  0.66116840     0.32200
H491        H  0.41780911  0.20286624  0.65687996     0.31000
H492        H  0.48534456  0.14256526  0.64457480     0.32700
H493        H  0.08989945  0.16222000  0.61739226     0.31700
H494        H  0.06470977  0.41665702  0.61029708     0.35700
H495        H  0.04861855  0.35502175  0.57651143     0.28400
H496        H  0.13020891  0.28230624  0.73233916     0.32600
H497        H  0.12912244  0.19861314  0.67902743     0.35500
H498        H  0.94875916  0.24661024  0.66743138     0.28100
H499        H  0.09572874  0.39486710  0.57531059     0.41000
H500        H  0.23364248  0.48018776  0.65839125     0.31000
H501        H  0.13330549  0.46527872  0.66669395     0.38700
H502        H  0.06597329  0.15742406  0.64037177     0.30500
H503        H  0.25884809  0.37798389  0.65820679     0.30600
H504        H  0.15779959  0.27538544  0.71359940     0.30800
C505        C  0.50222686  0.15254950  0.73884151    -0.16600
C506        C  0.98953014  0.17112460  0.72155021    -0.31800
H507        H  0.04602355  0.18027326  0.73810628     0.12400
H508        H  0.44583018  0.14605764  0.72271980     0.13000
C509        C  0.01739378  0.12819668  0.88358398    -0.16600
C510        C  0.03884440  0.13516354  0.90320619    -0.31800
H511        H  0.98339378  0.10345954  0.88341832     0.12400
H512        H  0.07234555  0.16100539  0.90414211     0.13000
C513        C  0.49732856  0.36782360  0.88417964    -0.16600
C514        C  0.46925214  0.34438852  0.90121503    -0.31800
H515        H  0.52074323  0.40379142  0.88641992     0.12400
H516        H  0.44631448  0.30804613  0.89988895     0.13000
C517        C  0.04557821  0.37836956  0.73406330    -0.16600
C518        C  0.04761788  0.41943874  0.73770409    -0.31800
H519        H  0.03894514  0.35411668  0.74841808     0.12400
H520        H  0.05793269  0.44557502  0.72399931     0.13000
C521        C  0.34897172  0.45058331  0.88894212    -0.16600
C522        C  0.35223972  0.43638639  0.86806636    -0.31800
H523        H  0.32642874  0.46370648  0.89139514     0.12400
H524        H  0.37178521  0.41966520  0.86542650     0.13000
C525        C  0.22892519  0.40921075  0.72508207    -0.16600
C526        C  0.25037723  0.38675443  0.73188461    -0.31800
H527        H  0.21916036  0.42548266  0.73787899     0.12400
H528        H  0.25520893  0.36584645  0.71946205     0.13000
C529        C  0.44731374  0.23788357  0.57380383    -0.16600
C530        C  0.45274516  0.22292094  0.55373800    -0.31800
H531        H  0.93336312  0.23939784  0.57373926     0.12400
H532        H  0.47645780  0.21097380  0.55262926     0.13000
C533        C  0.15799982  0.25558389  0.53812579    -0.16600
C534        C  0.14695755  0.23453916  0.55885717    -0.31800
H535        H  0.16628356  0.29172016  0.53563237     0.12400
H536        H  0.14213579  0.19945705  0.56109112     0.13000
C537        C  0.22440616  0.43644684  0.56776272    -0.16600
C538        C  0.20437612  0.44000903  0.54878763    -0.31800
H539        H  0.25857097  0.44766156  0.56770984     0.12400
H540        H  0.17072867  0.43123242  0.54970096     0.13000
C541        C  0.45344096  0.20201591  0.38973661    -0.16600
C542        C  0.44138558  0.21022680  0.40992848    -0.31800
H543        H  0.48125203  0.19668101  0.38827721     0.12400
H544        H  0.41475157  0.21788474  0.41038216     0.13000
C545        C  0.26957295  0.22906751  0.39092353    -0.16600
C546        C  0.24754561  0.20679995  0.41007649    -0.31800
H547        H  0.28137448  0.26609125  0.38881747     0.12400
H548        H  0.23270756  0.16939426  0.41177823     0.13000
C549        C  0.20999268  0.01156041  0.40836541    -0.16600
C550        C  0.19205967  0.01932012  0.38953526    -0.31800
H551        H  0.24313680  0.51223239  0.40715550     0.12400
H552        H  0.15937101  0.01386432  0.39001579     0.13000
C553        C  0.43075557  0.32421767  0.07261704    -0.16600
C554        C  0.40788728  0.31530377  0.05329883    -0.31800
H555        H  0.46440620  0.35005387  0.07223167     0.12400
H556        H  0.37479615  0.28811851  0.05313030     0.13000
C557        C  0.42739655  0.25977040  0.21568418    -0.16600
C558        C  0.44624046  0.25313659  0.23457863    -0.31800
H559        H  0.39309837  0.24797812  0.21602730     0.12400
H560        H  0.48071569  0.26651064  0.23519353     0.13000
C561        C  0.39157769  0.05803651  0.21653997    -0.16600
C562        C  0.36724314  0.03372789  0.23467680    -0.31800
H563        H  0.40646539  0.09552008  0.21622191     0.12400
H564        H  0.35417048  0.99643849  0.23572780     0.13000
C565        C  0.46317822  0.08956495  0.05510445    -0.16600
C566        C  0.44209040  0.06798221  0.07459687    -0.31800
H567        H  0.48416319  0.12664719  0.05430346     0.12400
H568        H  0.41991704  0.03114294  0.07457719     0.13000
C569        C  0.20387122  0.06715128  0.21362308    -0.16600
C570        C  0.19436979  0.07780196  0.23389374    -0.31800
H571        H  0.22303921  0.04950771  0.21269109     0.12400
H572        H  0.17323257  0.09306257  0.23497405     0.13000
C573        C  0.09411901  0.51946416  0.08138217    -0.16600
C574        C  0.09847079  0.50488764  0.06092348    -0.31800
H575        H  0.07372452  0.53536701  0.08350323     0.12400
H576        H  0.11300942  0.98480302  0.06018348     0.13000
C577        C  0.10995734  0.00628841  0.10245973     0.80000
N578        N  0.11617650  0.96846412  0.10369874    -0.78300
C579        C  0.13849941  0.96280343  0.12115131     0.82500
N580        N  0.15449899  0.99489310  0.13738380    -0.78200
C581        C  0.15091128  0.53431882  0.13671176     0.82600
N582        N  0.13125117  0.54271671  0.11842998    -0.79900
C583        C  0.19899370  0.58320391  0.19236936     0.80000
N584        N  0.17957388  0.55297381  0.17550467    -0.78300
C585        C  0.17093657  0.56763201  0.15514631     0.82500
N586        N  0.18399380  0.61332311  0.15151854    -0.78200
C587        C  0.20521470  0.64432906  0.16798188     0.82600
N588        N  0.21212518  0.62904079  0.18852801    -0.79900
C589        C  0.45060387  0.59218220  0.09816027     0.80000
N590        N  0.48564595  0.63340846  0.10202935    -0.78300
C591        C  0.49809832  0.64674020  0.12365168     0.82500
N592        N  0.47541551  0.61782171  0.14156818    -0.78200
C593        C  0.43984474  0.57649866  0.13797278     0.82600
N594        N  0.42808766  0.56391386  0.11616667    -0.79900
C595        C  0.39454902  0.53393252  0.19643035     0.80000
N596        N  0.36778569  0.99028407  0.19246169    -0.78300
C597        C  0.36489495  0.97129910  0.17192040     0.82500
N598        N  0.38934470  0.99942956  0.15418086    -0.78200
C599        C  0.41505853  0.54459514  0.15754370     0.82600
N600        N  0.41878618  0.56146835  0.17869703    -0.79900
C601        C  0.45158940  0.78122141  0.19585573     0.80000
N602        N  0.42750899  0.78399419  0.17819641    -0.78300
C603        C  0.44401129  0.79464825  0.15664584     0.82500
N604        N  0.48439043  0.80171019  0.15295718    -0.78200
C605        C  0.00772432  0.79956734  0.16992610     0.82600
N606        N  0.49199572  0.78854056  0.19184262    -0.79900
C607        C  0.41174023  0.80583100  0.09733836     0.80000
N608        N  0.43466221  0.80358800  0.11554787    -0.78300
C609        C  0.41838242  0.79701061  0.13704461     0.82500
N610        N  0.37946051  0.79461114  0.14023981    -0.78200
C611        C  0.35655458  0.79797535  0.12215633     0.82600
N612        N  0.37281297  0.80346335  0.10072960    -0.79900
Zr613      Zr  0.25301293  0.80776819  0.16814287     2.17500
O614        O  0.28383577  0.80763259  0.20535714    -0.51500
O615        O  0.30789074  0.80171525  0.14730534    -0.74700
O616        O  0.23747990  0.72627291  0.17706186    -0.81500
O617        O  0.29835427  0.93978943  0.15566208    -0.83300
O618        O  0.20325191  0.70157199  0.14474385    -0.78900
O619        O  0.31493944  0.88791355  0.17356253    -0.90500
O620        O  0.29365437  0.80154227  0.10940863    -0.76500
O621        O  0.21677742  0.76020882  0.13699603    -0.86000
O622        O  0.26068015  0.85437610  0.13467822    -0.85700
O623        O  0.17820507  0.76155813  0.17978483    -0.72400
O624        O  0.21858532  0.85289430  0.17749089    -0.84600
Zr625      Zr  0.11806438  0.80726873  0.12360296     2.26400
Zr626      Zr  0.14323016  0.71497958  0.14761231     2.06300
Zr627      Zr  0.22606395  0.89859103  0.14338541     2.10000
Zr628      Zr  0.22625837  0.80578317  0.10395729     1.78800
O629        O  0.23898037  0.96116912  0.16853954    -0.93400
O630        O  0.21354134  0.73619650  0.08458212    -0.41200
O631        O  0.19192400  0.85192171  0.11167961    -0.77800
O632        O  0.15082758  0.76075744  0.11369247    -0.96500
O633        O  0.10950836  0.75957123  0.15650058    -0.89800
O634        O  0.15300641  0.85478408  0.15489356    -0.92600
C635        C  0.31656757  0.80021467  0.12636578     1.01100
C636        C  0.32398240  0.92967599  0.16668819     1.14100
C637        C  0.21724340  0.69329354  0.16321923     1.04800
O638        O  0.11760445  0.64477144  0.12615772    -0.94800
O639        O  0.06752214  0.67837335  0.13965002    -0.90500
O640        O  0.05446198  0.73037668  0.11933837    -0.83700
C641        C  0.04297215  0.68945682  0.12800777     1.11500
O642        O  0.16440794  0.81083791  0.22726867    -0.96800
Zr643      Zr  0.14367367  0.80709029  0.18747621     1.88900
O644        O  0.06099123  0.80819610  0.14452321    -0.73400
O645        O  0.12027496  0.65979194  0.17990491    -0.52700
O646        O  0.09670798  0.73829797  0.21024763    -0.97400
O647        O  0.15075381  0.87493630  0.20655602    -0.54600
O648        O  0.07249822  0.80132752  0.18232440    -0.73900
C649        C  0.05003259  0.80377302  0.16549558     0.98400
O650        O  0.09190889  0.80636440  0.08508115    -0.62700
O651        O  0.26417864  0.94804114  0.11055928    -0.57500
O652        O  0.12231761  0.88389694  0.11631464    -0.94200
O653        O  0.18558731  0.93615076  0.13147838    -0.92700
O654        O  0.27910437  0.87152866  0.08144215    -0.93000
O655        O  0.20384988  0.80732058  0.06480293    -0.91800
C656        C  0.14929043  0.92501360  0.12240219     1.17300
H657        H  0.29043272  0.87391237  0.13061692     0.33200
H658        H  0.13550794  0.74110468  0.10133564     0.44100
H659        H  0.14055242  0.87415340  0.15865331     0.37600
H660        H  0.17601328  0.74236900  0.19304769     0.34100
H661        H  0.24218170  0.74193746  0.07937011     0.25800
H662        H  0.09065279  0.65352182  0.18324906     0.31800
H663        H  0.07619925  0.71694611  0.19922361     0.37700
H664        H  0.29506272  0.85908312  0.07288531     0.32200
H665        H  0.27411540  0.97987307  0.11563618     0.31000
H666        H  0.25564965  0.98988604  0.15922459     0.32700
H667        H  0.12539224  0.87818324  0.20194243     0.31700
H668        H  0.18479281  0.82152976  0.06554170     0.35700
H669        H  0.08673397  0.77636026  0.07916513     0.28400
H670        H  0.25923510  0.78552347  0.21488204     0.32600
H671        H  0.18548721  0.79915812  0.22770092     0.35500
H672        H  0.29069784  0.94533923  0.10925216     0.28100
H673        H  0.06292898  0.80313674  0.08718256     0.41000
H674        H  0.11091706  0.65301689  0.11084296     0.31000
H675        H  0.20541483  0.71204533  0.09683960     0.38700
H676        H  0.17517387  0.90137154  0.19875912     0.30500
H677        H  0.11674345  0.63073614  0.17355001     0.30600
H678        H  0.29150183  0.83814632  0.21155646     0.30800
Zr679      Zr  0.32301188  0.62906232  0.35832120     2.17500
O680        O  0.33021210  0.59220912  0.39369952    -0.51500
O681        O  0.29358212  0.66960891  0.37971952    -0.74700
O682        O  0.38886320  0.67541585  0.37851133    -0.81500
O683        O  0.20782983  0.54452295  0.34977298    -0.83300
O684        O  0.44396909  0.71065543  0.35301202    -0.78900
O685        O  0.26402425  0.55880219  0.37260342    -0.90500
O686        O  0.28850713  0.72078914  0.35463827    -0.76500
O687        O  0.35760307  0.70141024  0.33804107    -0.86000
O688        O  0.26735196  0.63219025  0.33656541    -0.85700
O689        O  0.37912574  0.62736529  0.33659469    -0.72400
O690        O  0.29523691  0.56311968  0.33483011    -0.84600
Zr691      Zr  0.33008073  0.63466633  0.26988780     2.26400
Zr692      Zr  0.41205378  0.69920182  0.31482795     2.06300
Zr693      Zr  0.24095757  0.56791473  0.31191896     2.10000
Zr694      Zr  0.30206300  0.70388640  0.31623494     1.78800
O695        O  0.21186296  0.48567048  0.30580584    -0.93400
O696        O  0.34907877  0.78663181  0.31910203    -0.41200
O697        O  0.27521844  0.64010551  0.29112380    -0.77800
O698        O  0.35600178  0.70167521  0.29287393    -0.96500
O699        O  0.38589566  0.63293199  0.29160040    -0.89800
O700        O  0.29560380  0.56285407  0.29047666    -0.92600
C701        C  0.28540694  0.70285006  0.37478192     1.01100
C702        C  0.22384647  0.54167179  0.36902288     1.14100
C703        C  0.42881511  0.69946733  0.37348195     1.04800
O704        O  0.44735470  0.78240386  0.31943080    -0.94800
O705        O  0.44164957  0.73472800  0.27671497    -0.90500
O706        O  0.38978615  0.69617998  0.25083892    -0.83700
C707        C  0.42661933  0.72826592  0.25625600     1.11500
O708        O  0.36741936  0.52845814  0.34697875    -0.96800
Zr709      Zr  0.35136967  0.56183923  0.31302289     1.88900
O710        O  0.35773936  0.58975523  0.25063137    -0.73400
O711        O  0.47935717  0.69707428  0.31088930    -0.52700
O712        O  0.42500166  0.57500163  0.31199473    -0.97400
O713        O  0.30864588  0.47815337  0.31688373    -0.54600
O714        O  0.35883484  0.53643408  0.27576200    -0.73900
C715        C  0.36293473  0.55445124  0.25563486     0.98400
O716        O  0.32066965  0.67053700  0.23474880    -0.62700
O717        O  0.16588760  0.54990330  0.31068834    -0.57500
O718        O  0.26569325  0.58450819  0.25018792    -0.94200
O719        O  0.21329519  0.57579612  0.27441447    -0.92700
O720        O  0.22923734  0.69287575  0.31396690    -0.93000
O721        O  0.29483223  0.75031036  0.28506055    -0.91800
C722        C  0.22784378  0.57775165  0.25420878     1.17300
H723        H  0.24435941  0.63068355  0.34587477     0.33200
H724        H  0.36736908  0.72949889  0.28336735     0.44100
H725        H  0.28345888  0.53707351  0.28048755     0.37600
H726        H  0.39972796  0.62491835  0.34664894     0.34100
H727        H  0.33156439  0.79819526  0.32685756     0.23400
H728        H  0.50146094  0.72717677  0.31638939     0.31800
H729        H  0.43472722  0.58461618  0.29602800     0.37700
H730        H  0.21547587  0.66994386  0.30202735     0.32200
H731        H  0.14974822  0.51971720  0.31893064     0.31000
H732        H  0.19909190  0.47052308  0.32068918     0.32700
H733        H  0.27654855  0.97005665  0.29482347     0.31700
H734        H  0.28460544  0.72933111  0.27211409     0.35700
H735        H  0.31583159  0.64853447  0.22257791     0.28400
H736        H  0.33413510  0.61382283  0.40591794     0.32600
H737        H  0.35621841  0.53849369  0.35979056     0.35500
H738        H  0.16393651  0.57257102  0.32059831     0.28100
H739        H  0.29306403  0.67082065  0.23652185     0.41000
H740        H  0.47737939  0.79327108  0.31454742     0.31000
H741        H  0.37083292  0.78929901  0.33046495     0.38700
H742        H  0.28727140  0.47287856  0.32892839     0.30500
H743        H  0.47790382  0.67415590  0.32269163     0.30600
H744        H  0.35788609  0.59184401  0.39254355     0.30800
C745        C  0.21822138  0.94021125  0.52587280     0.80000
N746        N  0.19885272  0.95291255  0.50909636    -0.78300
C747        C  0.21534291  0.96338055  0.48766475     0.82500
N748        N  0.25197761  0.96055968  0.48323601    -0.78200
C749        C  0.27097818  0.94616459  0.49989803     0.82600
N750        N  0.25389261  0.93640026  0.52121001    -0.79900
C751        C  0.19016639  0.00038898  0.43120476     0.80000
N752        N  0.20943133  0.98757403  0.44800142    -0.78300
C753        C  0.19355126  0.97814130  0.46955365     0.82500
N754        N  0.15746088  0.98190178  0.47411012    -0.78200
C755        C  0.13826620  0.99607316  0.45745711     0.82600
N756        N  0.15482965  0.00494699  0.43597141    -0.79900
C757        C  0.16432364  0.71288461  0.52364617     0.80000
N758        N  0.13041008  0.67037090  0.52126635    -0.78300
C759        C  0.12605268  0.64693960  0.50220766     0.82500
N760        N  0.15598790  0.66573825  0.48531191    -0.78200
C761        C  0.19029210  0.70790646  0.48742779     0.82600
N762        N  0.19404424  0.73205555  0.50655017    -0.79900
C763        C  0.25050083  0.72558109  0.43272839     0.80000
N764        N  0.22035787  0.70463566  0.44964713    -0.78300
C765        C  0.22205360  0.72835386  0.46869764     0.82500
N766        N  0.25443278  0.77165873  0.47090850    -0.78200
C767        C  0.28440021  0.79219173  0.45431757     0.82600
N768        N  0.28230719  0.76930134  0.43531919    -0.79900
C769        C  0.44651910  0.73362095  0.53524209     0.80000
N770        N  0.45892470  0.72045704  0.51620559    -0.78300
C771        C  0.46243029  0.74221050  0.49564210     0.82500
N772        N  0.45210638  0.77725045  0.49413790    -0.78200
C773        C  0.43855663  0.79042627  0.51292586     0.82600
N774        N  0.43599843  0.76848357  0.53344373    -0.79900
C775        C  0.46804932  0.71396873  0.43508465     0.80000
N776        N  0.48288379  0.68256608  0.43748475    -0.78300
C777        C  0.98199580  0.66150629  0.45894264     0.82500
N778        N  0.97081191  0.67806527  0.47740450    -0.78200
C779        C  0.95239727  0.70602578  0.47476917     0.82600
N780        N  0.46280638  0.73408564  0.45385207    -0.79900
Zr781      Zr  0.38685316  0.90316074  0.50057996     2.17500
O782        O  0.35808304  0.87203438  0.53845078    -0.51500
O783        O  0.32919129  0.84601635  0.47963796    -0.74700
O784        O  0.32454199  0.91958352  0.50502595    -0.81500
O785        O  0.47047510  0.87078092  0.51214369    -0.83300
O786        O  0.33887030  0.98412699  0.48344840    -0.78900
O787        O  0.39937649  0.83459317  0.50786861    -0.90500
O788        O  0.34732622  0.85774775  0.44196779    -0.76500
O789        O  0.38021222  0.94194341  0.46718229    -0.86000
O790        O  0.42280507  0.88960397  0.46961857    -0.85700
O791        O  0.41951751  0.98380853  0.50928552    -0.72400
O792        O  0.46100158  0.93507922  0.51135731    -0.84600
Zr793      Zr  0.02361160  0.54034903  0.45546991     2.26400
Zr794      Zr  0.41710406  0.52686911  0.47533078     2.06300
Zr795      Zr  0.49648669  0.92270179  0.47977328     2.10000
Zr796      Zr  0.41484901  0.92810393  0.43645193     1.78800
O797        O  0.03175585  0.91919678  0.52051009    -0.93400
O798        O  0.36392556  0.94489224  0.41558340    -0.41200
O799        O  0.48965478  0.95969527  0.44542509    -0.77800
O800        O  0.45287064  0.51513240  0.44367646    -0.96500
O801        O  0.48895830  0.55452171  0.48738370    -0.89800
O802        O  0.02790477  0.00816400  0.49137261    -0.92600
C803        C  0.32241255  0.83524707  0.45876546     1.01100
C804        C  0.43514534  0.83380967  0.51151101     1.14100
C805        C  0.31380586  0.94923060  0.49582798     1.04800
O806        O  0.40006490  0.56047930  0.44177226    -0.94800
O807        O  0.47408130  0.60396738  0.47960407    -0.90500
O808        O  0.01052908  0.60894961  0.44895649    -0.83700
C809        C  0.49570835  0.62832450  0.46251351     1.11500
O810        O  0.47386313  0.99516281  0.55859873    -0.96800
Zr811      Zr  0.49267282  0.51436921  0.52041335     1.88900
O812        O  0.07942256  0.59635072  0.47693656    -0.73400
O813        O  0.38817730  0.56900970  0.49603285    -0.52700
O814        O  0.48282985  0.57573444  0.53683195    -0.97400
O815        O  0.03801150  0.01990709  0.54484869    -0.54600
O816        O  0.06055831  0.58244044  0.51457409    -0.73900
C817        C  0.08618499  0.60553183  0.49790647     0.98400
O818        O  0.05503115  0.57431968  0.41838451    -0.62700
O819        O  0.48385193  0.87041121  0.44881410    -0.57500
O820        O  0.08590309  0.52411276  0.45078571    -0.94200
O821        O  0.07274345  0.96318597  0.47671093    -0.92700
O822        O  0.42381780  0.87015503  0.41588934    -0.93000
O823        O  0.43556724  0.94857037  0.39659438    -0.91800
C824        C  0.09610193  0.99456588  0.46211486     1.17300
H825        H  0.41116163  0.85712298  0.46688983     0.33200
H826        H  0.45262732  0.53286687  0.43030493     0.44100
H827        H  0.05772372  0.51184381  0.49410897     0.37600
H828        H  0.40411763  0.98845340  0.52149233     0.34100
H829        H  0.34367107  0.91532094  0.40878963     0.25800
H830        H  0.40998655  0.58629219  0.50756263     0.31800
H831        H  0.95318808  0.57036538  0.52780403     0.37700
H832        H  0.39447239  0.84597490  0.41235551     0.32200
H833        H  0.02510148  0.86248969  0.47318236     0.31000
H834        H  0.04020703  0.89532920  0.51721689     0.32700
H835        H  0.05124843  0.52078212  0.55374754     0.31700
H836        H  0.45702062  0.98172712  0.39648550     0.35700
H837        H  0.08622475  0.59199608  0.42114995     0.28400
H838        H  0.32706638  0.85178782  0.53607750     0.32600
H839        H  0.43912301  0.46600937  0.55855398     0.35500
H840        H  0.47353262  0.83944465  0.45620071     0.28100
H841        H  0.05150073  0.54780825  0.40944197     0.41000
H842        H  0.36087754  0.02989372  0.44003005     0.31000
H843        H  0.34685364  0.94956034  0.42745544     0.38700
H844        H  0.03156110  0.98716345  0.54514007     0.30500
H845        H  0.38939122  0.59304940  0.48500384     0.30600
H846        H  0.35970659  0.89868607  0.54654973     0.30800
C847        C  0.23317884  0.86964567  0.76168555     0.80000
N848        N  0.22923858  0.82666294  0.76168483    -0.78300
C849        C  0.24747699  0.81268797  0.77829224     0.82500
N850        N  0.26995183  0.84197654  0.79517397    -0.78200
C851        C  0.27315429  0.88485007  0.79560992     0.82600
N852        N  0.25433663  0.89828168  0.77878443    -0.79900
C853        C  0.32907332  0.93536066  0.85023887     0.80000
N854        N  0.32396130  0.97379842  0.85045204    -0.78300
C855        C  0.30380498  0.98335389  0.83316387     0.82500
N856        N  0.28850826  0.95434310  0.81562638    -0.78200
C857        C  0.29346315  0.91609402  0.81481580     0.82600
N858        N  0.31397579  0.90640123  0.83229807    -0.79900
C859        C  0.04992267  0.93165527  0.75945735     0.80000
N860        N  0.07817613  0.97570130  0.76515423    -0.78300
C861        C  0.08284895  0.98833281  0.78724371     0.82500
N862        N  0.05920524  0.95583041  0.80367999    -0.78200
C863        C  0.03018695  0.91185199  0.79837646     0.82600
N864        N  0.02607464  0.89990552  0.77617049    -0.79900
C865        C  0.49596664  0.85095633  0.86140606     0.80000
N866        N  0.46139146  0.81052480  0.85601501    -0.78300
C867        C  0.44919922  0.80151638  0.83407214     0.82500
N868        N  0.47184972  0.83382320  0.81735987    -0.78200
C869        C  0.00661899  0.87669111  0.81706398     0.82600
N870        N  0.01735285  0.88794644  0.83908497    -0.79900
C871        C  0.03447963  0.64474375  0.85952379     0.80000
N872        N  0.07485359  0.65161538  0.85563687    -0.78300
C873        C  0.08923970  0.65449084  0.83400420     0.82500
N874        N  0.06298181  0.65027826  0.81619331    -0.78200
C875        C  0.02262797  0.64335090  0.81986808     0.82600
N876        N  0.00834989  0.64000199  0.84160855    -0.79900
C877        C  0.48768017  0.65614903  0.76279545     0.80000
N878        N  0.51361458  0.65706250  0.78027783    -0.78300
C879        C  0.49849997  0.64836739  0.80211732     0.82500
N880        N  0.45773488  0.63991373  0.80627278    -0.78200
C881        C  0.43180799  0.63894308  0.78890135     0.82600
N882        N  0.44696854  0.64715638  0.76727649    -0.79900
Zr883      Zr  0.19587775  0.65023532  0.78862981     2.17500
O884        O  0.16840263  0.65209412  0.75070633    -0.51500
O885        O  0.13898797  0.65331399  0.80882363    -0.74700
O886        O  0.13443509  0.57050144  0.78312815    -0.81500
O887        O  0.27994743  0.76615913  0.77556670    -0.83300
O888        O  0.13880476  0.52675496  0.81257184    -0.78900
O889        O  0.20877474  0.72998924  0.78052635    -0.90500
O890        O  0.15532535  0.65961484  0.84656025    -0.76500
O891        O  0.18573265  0.60805572  0.82369936    -0.86000
O892        O  0.23539376  0.70363714  0.81778486    -0.85700
O893        O  0.22407097  0.59836141  0.78152466    -0.72400
O894        O  0.27024638  0.68887957  0.77652850    -0.84600
Zr895      Zr  0.32719934  0.64711920  0.83423470     2.26400
Zr896      Zr  0.21454961  0.55764054  0.81743538     2.06300
Zr897      Zr  0.30895226  0.74082256  0.80611322     2.10000
Zr898      Zr  0.22437951  0.66030501  0.85232672     1.78800
O899        O  0.35997371  0.80980457  0.78468551    -0.93400
O900        O  0.17505152  0.59761086  0.87766270    -0.41200
O901        O  0.29921293  0.69915084  0.84147452    -0.77800
O902        O  0.25335723  0.60828160  0.84725267    -0.96500
O903        O  0.28732649  0.59547054  0.80548628    -0.89800
O904        O  0.33708641  0.68992828  0.79924612    -0.92600
C905        C  0.13080336  0.65651114  0.82963873     1.01100
C906        C  0.24483917  0.76704125  0.77760853     1.14100
C907        C  0.11934781  0.53228014  0.79538619     1.04800
O908        O  0.18555061  0.50656215  0.85097590    -0.94800
O909        O  0.25703530  0.51992128  0.82282055    -0.90500
O910        O  0.32002806  0.56880245  0.83944371    -0.83700
C911        C  0.29315897  0.52924226  0.83155333     1.11500
O912        O  0.27554653  0.63776011  0.73156251    -0.96800
Zr913      Zr  0.29865857  0.63694763  0.77071509     1.88900
O914        O  0.38334271  0.64154446  0.81456168    -0.73400
O915        O  0.18560255  0.49230816  0.79237264    -0.52700
O916        O  0.27872974  0.56014023  0.75731153    -0.97400
O917        O  0.35105294  0.69247562  0.74359632    -0.54600
O918        O  0.36567194  0.63356394  0.77698512    -0.73900
C919        C  0.39053632  0.63693859  0.79377309     0.98400
O920        O  0.35028334  0.64705157  0.87337194    -0.62700
O921        O  0.30426294  0.79370333  0.83259223    -0.57500
O922        O  0.39250803  0.72289887  0.83854849    -0.94200
O923        O  0.38332022  0.77558307  0.81642923    -0.92700
O924        O  0.23095106  0.72936119  0.86979875    -0.93000
O925        O  0.25457002  0.67198553  0.89043098    -0.91800
C926        C  0.40596413  0.76375518  0.82925392     1.17300
H927        H  0.22565644  0.72603335  0.82017731     0.33200
H928        H  0.25073819  0.59073717  0.86119444     0.44100
H929        H  0.36688080  0.70675958  0.79466838     0.37600
H930        H  0.20763593  0.57718861  0.76988049     0.34100
H931        H  0.16398992  0.61250736  0.88812801     0.25800
H932        H  0.17586350  0.98944885  0.78280585     0.31800
H933        H  0.29694593  0.54994610  0.76600128     0.37700
H934        H  0.20813905  0.71765629  0.88163921     0.32200
H935        H  0.31772381  0.78964563  0.84671029     0.31000
H936        H  0.35518192  0.83531871  0.78980863     0.32700
H937        H  0.36803234  0.67775427  0.73843381     0.31700
H938        H  0.26358113  0.64793609  0.89271971     0.35700
H939        H  0.35184744  0.67532470  0.87966899     0.28400
H940        H  0.13814621  0.64440428  0.75329253     0.32600
H941        H  0.27604345  0.61132057  0.72432656     0.35500
H942        H  0.32477078  0.82499398  0.82666451     0.28100
H943        H  0.32527062  0.62139154  0.88121188     0.41000
H944        H  0.16361032  0.51378688  0.85711478     0.31000
H945        H  0.15024903  0.57862661  0.86799788     0.38700
H946        H  0.37116892  0.71837674  0.75286775     0.30500
H947        H  0.17614911  0.46476905  0.80272135     0.30600
H948        H  0.16677938  0.62471796  0.74333758     0.30800
Zr949      Zr  0.46941534  0.96654258  0.93336094     2.17500
O950        O  0.03838759  0.01124083  0.90182392    -0.51500
O951        O  0.40842351  0.94482075  0.90817342    -0.74700
O952        O  0.47483912  0.90462651  0.91602304    -0.81500
O953        O  0.02604177  0.61687309  0.94081479    -0.83300
O954        O  0.45679247  0.84395324  0.94106759    -0.78900
O955        O  0.00893734  0.56281965  0.91383222    -0.90500
O956        O  0.35286805  0.93514280  0.93066081    -0.76500
O957        O  0.41181333  0.90110918  0.95155827    -0.86000
O958        O  0.43393675  0.50891322  0.95107143    -0.85700
O959        O  0.50350158  0.93524733  0.95851893    -0.72400
O960        O  0.03718806  0.54217410  0.95701964    -0.84600
Zr961      Zr  0.45325861  0.95655488  0.02169172     2.26400
Zr962      Zr  0.44521221  0.87049770  0.97777783     2.06300
Zr963      Zr  0.48188921  0.56190734  0.97802742     2.10000
Zr964      Zr  0.37257010  0.93229032  0.97026496     1.78800
O965        O  0.06592461  0.64567025  0.98387431    -0.93400
O966        O  0.31515428  0.85417357  0.96441891    -0.41200
O967        O  0.42200195  0.49756435  0.99605038    -0.77800
O968        O  0.40388809  0.89985278  0.99665328    -0.96500
O969        O  0.49339125  0.92623375  0.00338789    -0.89800
O970        O  0.03071990  0.53927957  0.00216031    -0.92600
C971        C  0.37009854  0.93817570  0.91112422     1.01100
C972        C  0.02358586  0.60448512  0.92006805     1.14100
C973        C  0.46898451  0.86402527  0.92126320     1.04800
O974        O  0.38079593  0.79741304  0.97233040    -0.94800
O975        O  0.42374799  0.83013892  0.01532308    -0.90500
O976        O  0.43881465  0.88544665  0.04131163    -0.83700
C977        C  0.42635692  0.84370287  0.03588062     1.11500
O978        O  0.11692222  0.02671054  0.95381437    -0.96800
Zr979      Zr  0.06250957  0.00241964  0.98367019     1.88900
O980        O  0.51466188  0.97810690  0.04643982    -0.73400
O981        O  0.49112239  0.83546466  0.98567530    -0.52700
O982        O  0.09774831  0.95446450  0.98393305    -0.97400
O983        O  0.12629693  0.58400930  0.98634422    -0.54600
O984        O  0.08123353  0.99789600  0.02302279    -0.73900
C985        C  0.06420914  0.99595040  0.04243648     0.98400
O986        O  0.39730215  0.93365031  0.05080935    -0.62700
O987        O  0.43181907  0.59210722  0.97167406    -0.57500
O988        O  0.45125987  0.52490862  0.04067876    -0.94200
O989        O  0.47821544  0.58812616  0.01666161    -0.92700
O990        O  0.34083625  0.49365438  0.96704443    -0.93000
O991        O  0.31430028  0.90661035  0.99802806    -0.91800
C992        C  0.46419315  0.56784881  0.03634914     1.17300
H993        H  0.42450153  0.52485346  0.94026470     0.33200
H994        H  0.38112083  0.87514865  0.00548234     0.44100
H995        H  0.04915943  0.56114514  0.01305981     0.37600
H996        H  0.03295388  0.93831260  0.94831854     0.34100
H997        H  0.31414901  0.85024871  0.94775895     0.25800
H998        H  0.47309341  0.80237947  0.98249242     0.31800
H999        H  0.08354094  0.93121553  0.99644172     0.37700
H1000       H  0.34646490  0.99757864  0.98390058     0.32200
H1001       H  0.41242864  0.58075289  0.98511498     0.31000
H1002       H  0.05655857  0.66642775  0.99078814     0.32700
H1003       H  0.12450934  0.59188840  0.00226618     0.31700
H1004       H  0.31971320  0.88728635  0.00948849     0.35700
H1005       H  0.38134798  0.95054384  0.04652289     0.28400
H1006       H  0.02344813  0.99547067  0.88789298     0.32600
H1007       H  0.11023925  0.04616723  0.94304850     0.35500
H1008       H  0.44906242  0.62577810  0.97367405     0.28100
H1009       H  0.37660765  0.90103632  0.04797311     0.41000
H1010       H  0.39130460  0.77476635  0.97034687     0.31000
H1011       H  0.32636326  0.83371602  0.97059080     0.38700
H1012       H  0.11818104  0.60423054  0.97703269     0.30500
H1013       H  0.51299097  0.84753976  0.97335018     0.30600
H1014       H  0.05784454  0.99831731  0.90573206     0.30800
Zr1015     Zr  0.09208109  0.79114525  0.68897820     2.17500
O1016       O  0.11181765  0.75476259  0.72040572    -0.51500
O1017       O  0.05987972  0.82519740  0.71267638    -0.74700
O1018       O  0.15427670  0.84540209  0.70899203    -0.81500
O1019       O  0.98557630  0.68229217  0.68070699    -0.83300
O1020       O  0.20734106  0.88583891  0.68304819    -0.78900
O1021       O  0.03804949  0.72114393  0.70628499    -0.90500
O1022       O  0.05076144  0.87778619  0.69064587    -0.76500
O1023       O  0.11818707  0.86472785  0.67036910    -0.86000
O1024       O  0.03117724  0.78689768  0.66966843    -0.85700
O1025       O  0.15015026  0.79884065  0.66552202    -0.72400
O1026       O  0.06849239  0.72710903  0.66453964    -0.84600
Zr1027     Zr  0.09268023  0.80407096  0.60109245     2.26400
Zr1028     Zr  0.17428019  0.87180571  0.64539645     2.06300
Zr1029     Zr  0.00899776  0.72489201  0.64379030     2.10000
Zr1030     Zr  0.05759692  0.86031154  0.65083763     1.78800
O1031       O  0.96890605  0.64196160  0.63871073    -0.93400
O1032       O  0.09691013  0.94435578  0.65129791    -0.41200
O1033       O  0.03507116  0.79852082  0.62441536    -0.77800
O1034       O  0.11399962  0.86876552  0.62523002    -0.96500
O1035       O  0.15247965  0.80790223  0.62111970    -0.89800
O1036       O  0.06621401  0.73091761  0.62023417    -0.92600
C1037       C  0.05042838  0.85804706  0.71002628     1.01100
C1038       C  0.00217991  0.68739504  0.70070546     1.14100
C1039       C  0.19326017  0.87343203  0.70356965     1.04800
O1040       O  0.19662936  0.95384248  0.64781915    -0.94800
O1041       O  0.20517225  0.90327585  0.60739256    -0.90500
O1042       O  0.15284520  0.86439802  0.58186427    -0.83700
C1043       C  0.19031537  0.89548374  0.58701343     1.11500
O1044       O  0.14847152  0.70251738  0.67256047    -0.96800
Zr1045     Zr  0.12590435  0.73516585  0.64081116     1.88900
O1046       O  0.12470288  0.76745691  0.57838692    -0.73400
O1047       O  0.24835380  0.88687923  0.64255322    -0.52700
O1048       O  0.19862795  0.74645095  0.63739077    -0.97400
O1049       O  0.08348201  0.65124182  0.64192975    -0.54600
O1050       O  0.13664168  0.71909932  0.60229254    -0.73900
C1051       C  0.13615530  0.73633086  0.58249711     0.98400
O1052       O  0.07145758  0.84210645  0.57111738    -0.62700
O1053       O  0.45120434  0.77714790  0.65449476    -0.57500
O1054       O  0.03329724  0.75042570  0.57946166    -0.94200
O1055       O  0.97899246  0.70917358  0.60475073    -0.92700
O1056       O  0.98163543  0.83760950  0.65429069    -0.93000
O1057       O  0.03314549  0.89776208  0.62231024    -0.91800
C1058       C  0.99448652  0.72117779  0.58430031     1.17300
H1059       H  0.00818472  0.78109137  0.68012157     0.33200
H1060       H  0.12296311  0.89670295  0.61602446     0.44100
H1061       H  0.05601430  0.70612539  0.60970744     0.37600
H1062       H  0.17277273  0.79902763  0.67486401     0.34100
H1063       H  0.07633735  0.95349358  0.65758339     0.25800
H1064       H  0.26556730  0.91739190  0.64932832     0.31800
H1065       H  0.21700773  0.77786683  0.64294693     0.37700
H1066       H  0.97798014  0.84687115  0.66962123     0.32200
H1067       H  0.43352380  0.76931812  0.64058374     0.31000
H1068       H  0.41663711  0.67718661  0.64853253     0.32700
H1069       H  0.10446295  0.64008404  0.63923934     0.31700
H1070       H  0.04297825  0.89213974  0.60760423     0.35700
H1071       H  0.04111471  0.83297023  0.57452864     0.28400
H1072       H  0.11333028  0.77222068  0.73408160     0.32600
H1073       H  0.12922063  0.69971623  0.68531477     0.35500
H1074       H  0.93559097  0.72127376  0.66539660     0.28100
H1075       H  0.08690383  0.87539891  0.57439916     0.41000
H1076       H  0.21445677  0.96359836  0.66165344     0.31000
H1077       H  0.11836781  0.95115706  0.66346331     0.38700
H1078       H  0.06616408  0.64384869  0.62790138     0.30500
H1079       H  0.25055338  0.86453076  0.65347096     0.30600
H1080       H  0.14176925  0.76190750  0.71726518     0.30800
C1081       C  0.50594876  0.67333116  0.73987489    -0.16600
C1082       C  0.97832904  0.65427612  0.71948468    -0.31800
H1083       H  0.03451999  0.66414106  0.73641377     0.12400
H1084       H  0.44808491  0.66209318  0.72380841     0.13000
C1085       C  0.01585127  0.63220737  0.88263121    -0.16600
C1086       C  0.03982091  0.63956980  0.90141828    -0.31800
H1087       H  0.98161015  0.60864754  0.88381759     0.12400
H1088       H  0.07385329  0.66396050  0.90094871     0.13000
C1089       C  0.50309789  0.86492208  0.88528496    -0.16600
C1090       C  0.47589516  0.83971464  0.90242197    -0.31800
H1091       H  0.52608952  0.90086584  0.88795805     0.12400
H1092       H  0.45362319  0.80329288  0.90065081     0.13000
C1093       C  0.03870414  0.87281397  0.73123555    -0.16600
C1094       C  0.05089822  0.91716004  0.73577864    -0.31800
H1095       H  0.02539706  0.84684180  0.74498207     0.12400
H1096       H  0.06750137  0.94385458  0.72267378     0.13000
C1097       C  0.34469214  0.93752872  0.89095995    -0.16600
C1098       C  0.35007187  0.92551222  0.86998813    -0.31800
H1099       H  0.32126990  0.94947555  0.89340733     0.12400
H1100       H  0.37069370  0.91007848  0.86732189     0.13000
C1101       C  0.22437192  0.88829871  0.72229318    -0.16600
C1102       C  0.21109937  0.88259869  0.74408460    -0.31800
H1103       H  0.25689888  0.89538883  0.71843719     0.12400
H1104       H  0.17868007  0.87560265  0.74811121     0.13000
C1105       C  0.43740305  0.69900495  0.57615704    -0.16600
C1106       C  0.42760465  0.69848507  0.55387009    -0.31800
H1107       H  0.97947528  0.69037865  0.55077695     0.12400
H1108       H  0.39936417  0.66753137  0.54863178     0.13000
C1109       C  0.16531337  0.73900214  0.54376357    -0.16600
C1110       C  0.14651724  0.71586709  0.56327287    -0.31800
H1111       H  0.17845331  0.77625923  0.54217767     0.12400
H1112       H  0.13660584  0.67916042  0.56503184     0.13000
C1113       C  0.21730239  0.92242411  0.56742627    -0.16600
C1114       C  0.19791233  0.92714320  0.54845309    -0.31800
H1115       H  0.25153259  0.93403119  0.56768376     0.12400
H1116       H  0.16414458  0.91796369  0.54913430     0.13000
C1117       C  0.45899919  0.71146569  0.39282166    -0.16600
C1118       C  0.44734892  0.71754629  0.41365608    -0.31800
H1119       H  0.48883948  0.71037665  0.39050842     0.12400
H1120       H  0.41879550  0.72152951  0.41538346     0.13000
C1121       C  0.27374461  0.72376390  0.39353331    -0.16600
C1122       C  0.25254873  0.70035075  0.41269762    -0.31800
H1123       H  0.28431327  0.76058857  0.39171542     0.12400
H1124       H  0.23912586  0.66304717  0.41413497     0.13000
C1125       C  0.21163537  0.51016498  0.40775208    -0.16600
C1126       C  0.19538640  0.51963243  0.38883084    -0.31800
H1127       H  0.24213680  0.01548355  0.40736998     0.12400
H1128       H  0.16330309  0.51598791  0.38876835     0.13000
C1129       C  0.43300913  0.82099644  0.07488851    -0.16600
C1130       C  0.41149430  0.80975896  0.05515834    -0.31800
H1131       H  0.46611726  0.84829318  0.07479561     0.12400
H1132       H  0.37908774  0.78118963  0.05470953     0.13000
C1133       C  0.43147247  0.76388266  0.21843883    -0.16600
C1134       C  0.45212762  0.75886237  0.23696134    -0.31800
H1135       H  0.39697321  0.75062044  0.21923320     0.12400
H1136       H  0.48678670  0.77372191  0.23708414     0.13000
C1137       C  0.39307556  0.55594631  0.21773331    -0.16600
C1138       C  0.37252855  0.53197923  0.23677613    -0.31800
H1139       H  0.40670641  0.59334027  0.21712757     0.12400
H1140       H  0.36089741  0.49492802  0.23816825     0.13000
C1141       C  0.46496279  0.59517935  0.05616078    -0.16600
C1142       C  0.44115089  0.57349936  0.07500361    -0.31800
H1143       H  0.48866968  0.63145274  0.05636082     0.12400
H1144       H  0.41664922  0.53760042  0.07407952     0.13000
C1145       C  0.21131530  0.56758830  0.21351429    -0.16600
C1146       C  0.20189039  0.57673602  0.23422628    -0.31800
H1147       H  0.23256567  0.55257993  0.21187228     0.12400
H1148       H  0.17892726  0.58950396  0.23592393     0.13000
C1149       C  0.08633948  0.01219288  0.08292161    -0.16600
C1150       C  0.08989978  0.99724031  0.06246246    -0.31800
H1151       H  0.06628469  0.02844272  0.08523843     0.12400
H1152       H  0.12165113  0.49249110  0.05881605     0.13000
C1153       C  0.60390873  0.50330578  0.10238201     0.80000
N1154       N  0.61003021  0.46543481  0.10337215    -0.78300
C1155       C  0.63403431  0.46036628  0.12002490     0.82500
N1156       N  0.65185938  0.49316745  0.13584658    -0.78200
C1157       C  0.64604835  0.02982600  0.13435920     0.82600
N1158       N  0.62246422  0.03415116  0.11693739    -0.79900
C1159       C  0.68668581  0.08094121  0.19014963     0.80000
N1160       N  0.66899267  0.05017467  0.17346855    -0.78300
C1161       C  0.66490562  0.06446796  0.15214274     0.82500
N1162       N  0.68079323  0.11043003  0.14738315    -0.78200
C1163       C  0.70074766  0.14203817  0.16383949     0.82600
N1164       N  0.70297057  0.12702204  0.18534678    -0.79900
C1165       C  0.95204803  0.09399045  0.09594643     0.80000
N1166       N  0.98668570  0.13550383  0.09981501    -0.78300
C1167       C  0.99837828  0.14959058  0.12139830     0.82500
N1168       N  0.97518760  0.12100750  0.13935950    -0.78200
C1169       C  0.93991791  0.07932793  0.13571419     0.82600
N1170       N  0.92915420  0.06605902  0.11391891    -0.79900
C1171       C  0.88699625  0.03751722  0.19279299     0.80000
N1172       N  0.86132729  0.48936156  0.18830243    -0.78300
C1173       C  0.86084497  0.47157777  0.16768599     0.82500
N1174       N  0.88661372  0.50086610  0.15055926    -0.78200
C1175       C  0.91397056  0.04761715  0.15511251     0.82600
N1176       N  0.91306507  0.06521627  0.17558127    -0.79900
C1177       C  0.94665843  0.28030023  0.19158950     0.80000
N1178       N  0.92472704  0.28570333  0.17361891    -0.78300
C1179       C  0.94310128  0.29787929  0.15257146     0.82500
N1180       N  0.98333204  0.30402305  0.14961527    -0.78200
C1181       C  0.50615337  0.29559276  0.16801549     0.82600
N1182       N  0.98702343  0.28657431  0.18840344    -0.79900
C1183       C  0.91576804  0.31505344  0.09319513     0.80000
N1184       N  0.93741138  0.31144123  0.11165391    -0.78300
C1185       C  0.91922861  0.30217126  0.13272415     0.82500
N1186       N  0.87959701  0.29814046  0.13530232    -0.78200
C1187       C  0.85775176  0.30249997  0.11698534     0.82600
N1188       N  0.87596988  0.31094286  0.09590845    -0.79900
Zr1189     Zr  0.75185276  0.30677383  0.16283585     2.17500
O1190       O  0.78473671  0.30727732  0.19945608    -0.51500
O1191       O  0.80763825  0.30334720  0.14184317    -0.74700
O1192       O  0.73506054  0.22466247  0.17199638    -0.81500
O1193       O  0.79672738  0.43878301  0.14902492    -0.83300
O1194       O  0.70273108  0.19963197  0.13929099    -0.78900
O1195       O  0.81143332  0.38795109  0.16947814    -0.90500
O1196       O  0.79376546  0.30372468  0.10391517    -0.76500
O1197       O  0.71680936  0.25976490  0.13129664    -0.86000
O1198       O  0.75928503  0.35383960  0.12958831    -0.85700
O1199       O  0.67719217  0.25891065  0.17410496    -0.72400
O1200       O  0.71741951  0.35170825  0.17242577    -0.84600
Zr1201     Zr  0.61536593  0.30493246  0.11949860     2.26400
Zr1202     Zr  0.64314295  0.21367887  0.14139292     2.06300
Zr1203     Zr  0.72367910  0.39697058  0.13831352     2.10000
Zr1204     Zr  0.72532880  0.30614168  0.09863805     1.78800
O1205       O  0.73951132  0.46170629  0.16249625    -0.93400
O1206       O  0.71508379  0.23829373  0.07846291    -0.41200
O1207       O  0.68896271  0.35015001  0.10685115    -0.77800
O1208       O  0.64969475  0.26057456  0.10820792    -0.96500
O1209       O  0.60918307  0.25707512  0.15189002    -0.89800
O1210       O  0.65128226  0.35208912  0.15073586    -0.92600
C1211       C  0.81685086  0.30287177  0.12090785     1.01100
C1212       C  0.82117002  0.42936824  0.16154995     1.14100
C1213       C  0.71528822  0.19140399  0.15819309     1.04800
O1214       O  0.61952052  0.14961902  0.11579349    -0.94800
O1215       O  0.56708991  0.17629365  0.13574370    -0.90500
O1216       O  0.55216371  0.22684690  0.11538051    -0.83700
C1217       C  0.54149242  0.18636564  0.12454592     1.11500
O1218       O  0.67205713  0.30408521  0.22082041    -0.96800
Zr1219     Zr  0.64322353  0.30427885  0.18304372     1.88900
O1220       O  0.55757529  0.30187587  0.14175446    -0.73400
O1221       O  0.61825618  0.15337782  0.17138337    -0.52700
O1222       O  0.59378078  0.23829903  0.20666307    -0.97400
O1223       O  0.64871860  0.37138607  0.20218328    -0.54600
O1224       O  0.57224500  0.29933698  0.17945266    -0.73900
C1225       C  0.54818456  0.29941355  0.16292613     0.98400
O1226       O  0.58975427  0.30816487  0.08125994    -0.62700
O1227       O  0.75645421  0.44347369  0.10380093    -0.57500
O1228       O  0.61819924  0.38163133  0.11435319    -0.94200
O1229       O  0.68224143  0.43437065  0.12858692    -0.92700
O1230       O  0.77821313  0.37437779  0.07759491    -0.93000
O1231       O  0.70422973  0.30874249  0.05931191    -0.91800
C1232       C  0.64522630  0.42284077  0.12041660     1.17300
H1233       H  0.78901872  0.37361049  0.12554946     0.33200
H1234       H  0.63445200  0.24139968  0.09568958     0.44100
H1235       H  0.63862888  0.37096980  0.15512814     0.37600
H1236       H  0.67495382  0.23914748  0.18713047     0.34100
H1237       H  0.74056111  0.24951073  0.06837465     0.25800
H1238       H  0.60429080  0.16346514  0.18275952     0.31800
H1239       H  0.58065430  0.25107767  0.21712950     0.37700
H1240       H  0.79540191  0.36345619  0.06902661     0.32200
H1241       H  0.75973381  0.47435994  0.10686948     0.31000
H1242       H  0.74287137  0.45097602  0.17795827     0.32700
H1243       H  0.67982101  0.39142253  0.20435849     0.31700
H1244       H  0.67883296  0.31360540  0.06043054     0.35700
H1245       H  0.58250708  0.27788077  0.07490435     0.28400
H1246       H  0.79869109  0.28773837  0.19753207     0.32600
H1247       H  0.70355045  0.32061843  0.21860183     0.35500
H1248       H  0.78612741  0.44804979  0.10370170     0.28100
H1249       H  0.56175083  0.30722767  0.08364634     0.41000
H1250       H  0.63619838  0.16344002  0.10158444     0.31000
H1251       H  0.71916310  0.21838734  0.09015700     0.38700
H1252       H  0.63705377  0.35986490  0.21771050     0.30500
H1253       H  0.59429830  0.12628523  0.16447642     0.30600
H1254       H  0.76028512  0.28891464  0.20992345     0.30800
Zr1255     Zr  0.80960419  0.13379343  0.35380411     2.17500
O1256       O  0.80863833  0.10864100  0.39348940    -0.51500
O1257       O  0.77978908  0.17554595  0.37411007    -0.74700
O1258       O  0.87816598  0.17500285  0.37245587    -0.81500
O1259       O  0.69669923  0.05119476  0.34730897    -0.83300
O1260       O  0.93254560  0.21077974  0.34667715    -0.78900
O1261       O  0.75530038  0.05736955  0.36478549    -0.90500
O1262       O  0.77814175  0.22843217  0.34891542    -0.76500
O1263       O  0.84584808  0.20515415  0.33267766    -0.86000
O1264       O  0.75431976  0.13806532  0.33207449    -0.85700
O1265       O  0.86384427  0.12753967  0.33202354    -0.72400
O1266       O  0.78004639  0.06619736  0.33123033    -0.84600
Zr1267     Zr  0.81480935  0.13610899  0.26537100     2.26400
Zr1268     Zr  0.89829630  0.19844563  0.30961182     2.06300
Zr1269     Zr  0.72610350  0.07179572  0.30862501     2.10000
Zr1270     Zr  0.79074986  0.20895428  0.31088170     1.78800
O1271       O  0.69717188  0.98957310  0.30253693    -0.93400
O1272       O  0.83819852  0.29203266  0.31136200    -0.41200
O1273       O  0.76140993  0.14326638  0.28719522    -0.77800
O1274       O  0.84369994  0.20415043  0.28767287    -0.96500
O1275       O  0.86947626  0.13155070  0.28692272    -0.89800
O1276       O  0.77887255  0.06466927  0.28642448    -0.92600
C1277       C  0.77353868  0.21006849  0.36905810     1.01100
C1278       C  0.71542624  0.04536104  0.36486231     1.14100
C1279       C  0.91794237  0.19908681  0.36710482     1.04800
O1280       O  0.93894327  0.28170519  0.31352797    -0.94800
O1281       O  0.92934804  0.23193383  0.27188801    -0.90500
O1282       O  0.87690304  0.19528320  0.24604150    -0.83700
C1283       C  0.91465499  0.22569302  0.25145289     1.11500
O1284       O  0.84341498  0.02356649  0.34288929    -0.96800
Zr1285     Zr  0.83340729  0.06109992  0.30863992     1.88900
O1286       O  0.84135913  0.09125886  0.24529141    -0.73400
O1287       O  0.96323056  0.19141798  0.30552346    -0.52700
O1288       O  0.90229625  0.06173673  0.30879443    -0.97400
O1289       O  0.78453899  0.97825687  0.30928864    -0.54600
O1290       O  0.84416640  0.03941895  0.27082844    -0.73900
C1291       C  0.84779827  0.05688424  0.25055423     0.98400
O1292       O  0.79599161  0.16597331  0.23097583    -0.62700
O1293       O  0.64978437  0.04858640  0.30835704    -0.57500
O1294       O  0.74868542  0.08387010  0.24804551    -0.94200
O1295       O  0.69884709  0.08274524  0.27186427    -0.92700
O1296       O  0.72094591  0.20601449  0.30851264    -0.93000
O1297       O  0.78241140  0.24899083  0.27715904    -0.91800
C1298       C  0.71231679  0.08137809  0.25186734     1.17300
H1299       H  0.73161745  0.13750492  0.34126356     0.33200
H1300       H  0.85609833  0.23171896  0.27793343     0.44100
H1301       H  0.76599631  0.03863643  0.27658946     0.37600
H1302       H  0.88408803  0.12408297  0.34191352     0.34100
H1303       H  0.83998016  0.30013741  0.32754311     0.23400
H1304       H  0.96076077  0.16825109  0.31743897     0.31800
H1305       H  0.92143542  0.08954271  0.29947954     0.37700
H1306       H  0.70004444  0.17269161  0.30967076     0.32200
H1307       H  0.63571514  0.01927676  0.31751706     0.31000
H1308       H  0.68227289  0.98471833  0.28775605     0.32700
H1309       H  0.80657227  0.45541984  0.30610994     0.31700
H1310       H  0.77496252  0.22663648  0.26487801     0.35700
H1311       H  0.80911860  0.19980075  0.23263458     0.28400
H1312       H  0.81812230  0.13651150  0.40262002     0.32600
H1313       H  0.83837606  0.03932235  0.35565467     0.35500
H1314       H  0.64691126  0.07150266  0.31765006     0.28100
H1315       H  0.81212615  0.16184137  0.21839287     0.41000
H1316       H  0.92801673  0.28768150  0.32778965     0.31000
H1317       H  0.86692923  0.29595318  0.30767409     0.38700
H1318       H  0.76831961  0.97264992  0.29492172     0.30500
H1319       H  0.95974334  0.17561877  0.29101450     0.30600
H1320       H  0.83180623  0.10004742  0.39487351     0.30800
C1321       C  0.71664134  0.43591184  0.52378813     0.80000
N1322       N  0.69806157  0.45013210  0.50720430    -0.78300
C1323       C  0.71510146  0.46175791  0.48590749     0.82500
N1324       N  0.75145961  0.45853580  0.48137226    -0.78200
C1325       C  0.76977586  0.44277637  0.49776964     0.82600
N1326       N  0.75218946  0.43186719  0.51901217    -0.79900
C1327       C  0.69224416  0.50224662  0.42984976     0.80000
N1328       N  0.71105209  0.48887925  0.44664358    -0.78300
C1329       C  0.69417565  0.47797845  0.46798000     0.82500
N1330       N  0.65750896  0.48077327  0.47231797    -0.78200
C1331       C  0.63889652  0.49567324  0.45566967     0.82600
N1332       N  0.65644219  0.50597609  0.43441147    -0.79900
C1333       C  0.65409242  0.22544738  0.51769043     0.80000
N1334       N  0.62298505  0.18112388  0.51596553    -0.78300
C1335       C  0.62114094  0.15669292  0.49770686     0.82500
N1336       N  0.65053735  0.17647043  0.48070521    -0.78200
C1337       C  0.68220563  0.22046745  0.48197881     0.82600
N1338       N  0.68389353  0.24548313  0.50054691    -0.79900
C1339       C  0.74164206  0.23530546  0.42725861     0.80000
N1340       N  0.71082700  0.21631598  0.44397497    -0.78300
C1341       C  0.71432106  0.24013488  0.46328058     0.82500
N1342       N  0.74942324  0.28130858  0.46605300    -0.78200
C1343       C  0.78041183  0.29962459  0.44977047     0.82600
N1344       N  0.77631219  0.27690896  0.43043106    -0.79900
C1345       C  0.94782059  0.22913947  0.52903058     0.80000
N1346       N  0.95387874  0.21114327  0.50976901    -0.78300
C1347       C  0.94321948  0.22218457  0.48917131     0.82500
N1348       N  0.92700646  0.25238794  0.48799675    -0.78200
C1349       C  0.92069204  0.27123934  0.50702783     0.82600
N1350       N  0.93227246  0.26002784  0.52752986    -0.79900
C1351       C  0.95535618  0.20839406  0.42776948     0.80000
N1352       N  0.97083211  0.17769022  0.42817118    -0.78300
C1353       C  0.48064135  0.16124914  0.45657058     0.82500
N1354       N  0.46772216  0.17642391  0.47487960    -0.78200
C1355       C  0.44982424  0.20482160  0.47212209     0.82600
N1356       N  0.94674673  0.22217845  0.44762007    -0.79900
Zr1357     Zr  0.88534318  0.39975660  0.49868615     2.17500
O1358       O  0.85445865  0.36732510  0.53608833    -0.51500
O1359       O  0.82766328  0.34751484  0.47613660    -0.74700
O1360       O  0.82360091  0.41680376  0.50347300    -0.81500
O1361       O  0.96201272  0.34665576  0.49646949    -0.83300
O1362       O  0.83694122  0.47902334  0.48026028    -0.78900
O1363       O  0.89323980  0.32765017  0.50584410    -0.90500
O1364       O  0.84737327  0.36158002  0.43869444    -0.76500
O1365       O  0.88057601  0.44038219  0.46550204    -0.86000
O1366       O  0.92362037  0.38943805  0.46805682    -0.85700
O1367       O  0.91648396  0.47981598  0.50839672    -0.72400
O1368       O  0.95841594  0.43181679  0.51121156    -0.84600
Zr1369     Zr  0.52250204  0.04001615  0.45400140     2.26400
Zr1370     Zr  0.90901874  0.01794462  0.46914123     2.06300
Zr1371     Zr  0.99630564  0.42228377  0.48005019     2.10000
Zr1372     Zr  0.91756454  0.42950584  0.43504032     1.78800
O1373       O  0.53219712  0.40613928  0.51097166    -0.93400
O1374       O  0.87172100  0.45299378  0.41347042    -0.41200
O1375       O  0.99162349  0.46079174  0.44568218    -0.77800
O1376       O  0.95065891  0.00520770  0.44090270    -0.96500
O1377       O  0.98107526  0.05562463  0.48231365    -0.89800
O1378       O  0.52909920  0.50195016  0.49009847    -0.92600
C1379       C  0.82093998  0.33924749  0.45501266     1.01100
C1380       C  0.92463773  0.31797573  0.50354390     1.14100
C1381       C  0.81238580  0.44539177  0.49350767     1.04800
O1382       O  0.86320275  0.03439032  0.44357937    -0.94800
O1383       O  0.94392049  0.08305885  0.44354466    -0.90500
O1384       O  0.50895558  0.10822369  0.44649391    -0.83700
C1385       C  0.97981423  0.11711831  0.44807775     1.11500
O1386       O  0.96566188  0.49530599  0.55884563    -0.96800
Zr1387     Zr  0.98726373  0.02410761  0.51791121     1.88900
O1388       O  0.57907934  0.09861373  0.47409277    -0.73400
O1389       O  0.90368906  0.07138821  0.49492052    -0.52700
O1390       O  0.96406567  0.07744077  0.53202740    -0.97400
O1391       O  0.53678194  0.49480179  0.54577887    -0.54600
O1392       O  0.55915472  0.09016567  0.51153033    -0.73900
C1393       C  0.58432386  0.11187304  0.49451863     0.98400
O1394       O  0.55084298  0.07035531  0.41597882    -0.62700
O1395       O  0.00376492  0.37760129  0.44984744    -0.57500
O1396       O  0.58328201  0.02200778  0.44798840    -0.94200
O1397       O  0.56997844  0.45692212  0.47132872    -0.92700
O1398       O  0.92980803  0.37352262  0.41470401    -0.93000
O1399       O  0.93759945  0.44612616  0.39491846    -0.91800
C1400       C  0.59603056  0.49271951  0.45970467     1.17300
H1401       H  0.91240995  0.35729565  0.46460408     0.33200
H1402       H  0.95000103  0.01932078  0.42631063     0.44100
H1403       H  0.55971591  0.01499873  0.49232992     0.37600
H1404       H  0.89993753  0.48346871  0.52034517     0.34100
H1405       H  0.85173106  0.42519092  0.40527251     0.25800
H1406       H  0.89790622  0.09249317  0.48485434     0.31800
H1407       H  0.48285596  0.09434285  0.52621593     0.37700
H1408       H  0.90090104  0.34753950  0.41203989     0.32200
H1409       H  0.51965256  0.36314435  0.45891457     0.31000
H1410       H  0.54232670  0.38585830  0.50423726     0.32700
H1411       H  0.57467651  0.02253123  0.53301083     0.31700
H1412       H  0.95459283  0.48021009  0.39357836     0.35700
H1413       H  0.52606503  0.06886200  0.40742667     0.28400
H1414       H  0.85823961  0.39429140  0.54471932     0.32600
H1415       H  0.93566028  0.98967784  0.55810748     0.35500
H1416       H  0.97876404  0.34642852  0.45174548     0.28100
H1417       H  0.56996099  0.10376470  0.41790248     0.41000
H1418       H  0.86305211  0.53469769  0.43966989     0.31000
H1419       H  0.85356100  0.45663888  0.42506526     0.38700
H1420       H  0.52587343  0.46125666  0.54410379     0.30500
H1421       H  0.87643295  0.05271223  0.50336437     0.30600
H1422       H  0.87466329  0.35800483  0.54324762     0.30800
C1423       C  0.73803666  0.36933966  0.76287138     0.80000
N1424       N  0.73197600  0.32543965  0.76451279    -0.78300
C1425       C  0.74439555  0.31025937  0.78333764     0.82500
N1426       N  0.76468690  0.34016421  0.80050393    -0.78200
C1427       C  0.77012605  0.38418754  0.79928479     0.82600
N1428       N  0.75596707  0.39809746  0.78044217    -0.79900
C1429       C  0.83376206  0.44490651  0.85087818     0.80000
N1430       N  0.82800436  0.48297045  0.85011857    -0.78300
C1431       C  0.80382668  0.48858777  0.83374364     0.82500
N1432       N  0.78521573  0.45584506  0.81787944    -0.78200
C1433       C  0.79078178  0.41774523  0.81790389     0.82600
N1434       N  0.81533718  0.41220038  0.83461822    -0.79900
C1435       C  0.55371174  0.42849865  0.76489253     0.80000
N1436       N  0.57976362  0.47306760  0.77043724    -0.78300
C1437       C  0.58327572  0.48591526  0.79238890     0.82500
N1438       N  0.56023265  0.45296979  0.80892365    -0.78200
C1439       C  0.53272383  0.40830620  0.80351996     0.82600
N1440       N  0.53026315  0.39635481  0.78143888    -0.79900
C1441       C  0.99404441  0.35812598  0.85816644     0.80000
N1442       N  0.96143777  0.31564000  0.85373931    -0.78300
C1443       C  0.95009605  0.30317011  0.83196713     0.82500
N1444       N  0.97123828  0.33455022  0.81444084    -0.78200
C1445       C  0.50785247  0.37231223  0.82168388     0.82600
N1446       N  0.51600900  0.38272224  0.84393712    -0.79900
C1447       C  0.53110301  0.12839432  0.86062126     0.80000
N1448       N  0.57146202  0.13457445  0.85731172    -0.78300
C1449       C  0.58785555  0.14099564  0.83585854     0.82500
N1450       N  0.56350725  0.14089292  0.81770611    -0.78200
C1451       C  0.52315895  0.13453335  0.82088477     0.82600
N1452       N  0.50711029  0.12780909  0.84238569    -0.79900
C1453       C  0.99319782  0.15422519  0.76258294     0.80000
N1454       N  0.01862447  0.15555650  0.78036741    -0.78300
C1455       C  0.00387471  0.15016955  0.80213642     0.82500
N1456       N  0.96390249  0.14434603  0.80590527    -0.78200
C1457       C  0.93853556  0.14329234  0.78820137     0.82600
N1458       N  0.95332750  0.14838728  0.76661680    -0.79900
Zr1459     Zr  0.69789056  0.14569715  0.79010804     2.17500
O1460       O  0.67053158  0.14931409  0.75238722    -0.51500
O1461       O  0.63959461  0.14454249  0.81068426    -0.74700
O1462       O  0.63742962  0.06529391  0.78441798    -0.81500
O1463       O  0.78011100  0.26706422  0.78143018    -0.83300
O1464       O  0.64542797  0.02094606  0.81239795    -0.78900
O1465       O  0.70869224  0.22635473  0.78528641    -0.90500
O1466       O  0.65365030  0.14405971  0.84858623    -0.76500
O1467       O  0.68914937  0.09924908  0.82358289    -0.86000
O1468       O  0.73419406  0.19495386  0.82097259    -0.85700
O1469       O  0.72923289  0.09738686  0.78082246    -0.72400
O1470       O  0.77221402  0.18822010  0.77827185    -0.84600
Zr1471     Zr  0.83202371  0.14410841  0.83391822     2.26400
Zr1472     Zr  0.72139464  0.05285572  0.81522774     2.06300
Zr1473     Zr  0.80772648  0.23589841  0.80987568     2.10000
Zr1474     Zr  0.72456380  0.14769766  0.85394924     1.78800
O1475       O  0.85113324  0.31586155  0.79641908    -0.93400
O1476       O  0.67755675  0.08021028  0.87755989    -0.41200
O1477       O  0.79992516  0.19103814  0.84397958    -0.77800
O1478       O  0.75803098  0.10062087  0.84639100    -0.96500
O1479       O  0.79434245  0.09455749  0.80390489    -0.89800
O1480       O  0.83995847  0.18977048  0.80014369    -0.92600
C1481       C  0.62993569  0.14368806  0.83166080     1.01100
C1482       C  0.74377381  0.26515786  0.78320482     1.14100
C1483       C  0.62413211  0.02667372  0.79622548     1.04800
O1484       O  0.68953319  0.99388192  0.84556276    -0.94800
O1485       O  0.76402732  0.01572182  0.82186115    -0.90500
O1486       O  0.82752788  0.06635171  0.83742066    -0.83700
C1487       C  0.80070668  0.02609264  0.83012369     1.11500
O1488       O  0.77560350  0.12942463  0.73189639    -0.96800
Zr1489     Zr  0.80391836  0.13966283  0.77039254     1.88900
O1490       O  0.88920740  0.14318669  0.81366381    -0.73400
O1491       O  0.69990683  0.99564820  0.78578339    -0.52700
O1492       O  0.79691460  0.07070985  0.75255372    -0.97400
O1493       O  0.85128533  0.20373773  0.74506108    -0.54600
O1494       O  0.87295004  0.13973681  0.77594102    -0.73900
C1495       C  0.89730807  0.14142764  0.79273823     0.98400
O1496       O  0.85808788  0.13946187  0.87188035    -0.62700
O1497       O  0.79879314  0.27481729  0.84229359    -0.57500
O1498       O  0.89546154  0.22296922  0.83783469    -0.94200
O1499       O  0.88332769  0.27337668  0.81558215    -0.92700
O1500       O  0.73188697  0.21529528  0.87325695    -0.93000
O1501       O  0.74934474  0.15391653  0.89310500    -0.91800
C1502       C  0.90746160  0.26336788  0.82805701     1.17300
H1503       H  0.72314762  0.21586228  0.82435502     0.33200
H1504       H  0.75596961  0.08158615  0.85969957     0.44100
H1505       H  0.86934496  0.20761773  0.79517035     0.37600
H1506       H  0.71341675  0.07744233  0.76864094     0.34100
H1507       H  0.66414883  0.09184362  0.88849017     0.25800
H1508       H  0.70915706  0.48900201  0.79026337     0.31800
H1509       H  0.80754957  0.05589466  0.76399481     0.37700
H1510       H  0.70317853  0.20581661  0.87983668     0.32200
H1511       H  0.82817319  0.29393006  0.84801912     0.31000
H1512       H  0.84839443  0.33511190  0.80819229     0.32700
H1513       H  0.88040404  0.21427980  0.75122370     0.31700
H1514       H  0.78082380  0.17353935  0.89196565     0.35700
H1515       H  0.87264724  0.17166076  0.87699579     0.28400
H1516       H  0.63988446  0.13992387  0.75499002     0.32600
H1517       H  0.76511175  0.15232469  0.72997281     0.35500
H1518       H  0.79030229  0.29730909  0.83570957     0.28100
H1519       H  0.83188833  0.12383410  0.88147432     0.41000
H1520       H  0.67958289  0.96419418  0.83793019     0.31000
H1521       H  0.65391167  0.06069837  0.86736940     0.38700
H1522       H  0.84459663  0.22895090  0.74826531     0.30500
H1523       H  0.68130042  0.96571286  0.79374149     0.30600
H1524       H  0.67031689  0.12320171  0.74441016     0.30800
Zr1525     Zr  0.98595015  0.48799255  0.93167396     2.17500
O1526       O  0.52314269  0.49999022  0.90100681    -0.51500
O1527       O  0.92497756  0.46801795  0.90648071    -0.74700
O1528       O  0.98273624  0.42241160  0.91318408    -0.81500
O1529       O  0.51012459  0.09505671  0.94162008    -0.83300
O1530       O  0.96129970  0.36083857  0.93802165    -0.78900
O1531       O  0.49524648  0.04112823  0.91491455    -0.90500
O1532       O  0.87015315  0.45794104  0.92969583    -0.76500
O1533       O  0.92670693  0.42475721  0.94993164    -0.86000
O1534       O  0.94427808  0.01323179  0.95045522    -0.85700
O1535       O  0.01734337  0.45260981  0.95615859    -0.72400
O1536       O  0.51834969  0.02304098  0.95855886    -0.84600
Zr1537     Zr  0.97184705  0.47504173  0.02027021     2.26400
Zr1538     Zr  0.95709498  0.38966133  0.97523121     2.06300
Zr1539     Zr  0.99155995  0.06617542  0.97759594     2.10000
Zr1540     Zr  0.89112392  0.45895344  0.96937181     1.78800
O1541       O  0.53621843  0.13045589  0.98264562    -0.93400
O1542       O  0.82936026  0.38320698  0.96477651    -0.41200
O1543       O  0.93187327  0.00101800  0.99542165    -0.77800
O1544       O  0.91930128  0.42192129  0.99506851    -0.96500
O1545       O  0.00865945  0.44225053  0.00082959    -0.89800
O1546       O  0.51077847  0.02160109  0.00322457    -0.92600
C1547       C  0.88645562  0.46045097  0.90993980     1.01100
C1548       C  0.51038088  0.08283810  0.92106524     1.14100
C1549       C  0.97292693  0.38034168  0.91813470     1.04800
O1550       O  0.89108622  0.31825747  0.96963158    -0.94800
O1551       O  0.93161900  0.34780136  0.01190888    -0.90500
O1552       O  0.95702370  0.40249037  0.03870676    -0.83700
C1553       C  0.93798627  0.36046102  0.03266192     1.11500
O1554       O  0.60275239  0.51814251  0.95342438    -0.96800
Zr1555     Zr  0.55077368  0.49611070  0.98447831     1.88900
O1556       O  0.03409796  0.49677049  0.04444630    -0.73400
O1557       O  0.99875926  0.34908366  0.98123858    -0.52700
O1558       O  0.58985240  0.45208957  0.98532167    -0.97400
O1559       O  0.60886841  0.06747230  0.99173851    -0.54600
O1560       O  0.56848870  0.48945992  0.02390394    -0.73900
C1561       C  0.55217358  0.48860906  0.04341314     0.98400
O1562       O  0.91746195  0.45239079  0.05028916    -0.62700
O1563       O  0.94390457  0.09887767  0.96951514    -0.57500
O1564       O  0.95914499  0.02887391  0.03900083    -0.94200
O1565       O  0.98288174  0.09195370  0.01510847    -0.92700
O1566       O  0.85066962  0.99552510  0.96743386    -0.93000
O1567       O  0.83530254  0.44100997  0.99777199    -0.91800
C1568       C  0.96922365  0.07116055  0.03464058     1.17300
H1569       H  0.93433474  0.02890765  0.93973438     0.33200
H1570       H  0.89566469  0.39816986  0.00380745     0.44100
H1571       H  0.52845571  0.04426999  0.01402883     0.37600
H1572       H  0.51971295  0.43061504  0.94994905     0.34100
H1573       H  0.80697735  0.38972738  0.95812380     0.25800
H1574       H  0.97851899  0.31648183  0.97807928     0.31800
H1575       H  0.57042458  0.42260434  0.99340241     0.37700
H1576       H  0.86514456  0.52382876  0.95149857     0.32200
H1577       H  0.92350206  0.08821172  0.98252651     0.31000
H1578       H  0.52220367  0.14904437  0.98670496     0.32700
H1579       H  0.60529266  0.07307725  0.00782605     0.31700
H1580       H  0.85002559  0.46230827  0.01022255     0.35700
H1581       H  0.89909446  0.46608573  0.04531245     0.28400
H1582       H  0.50644812  0.48306253  0.88769548     0.32600
H1583       H  0.63129016  0.53341377  0.96062696     0.35500
H1584       H  0.96186149  0.13245615  0.97151736     0.28100
H1585       H  0.89843542  0.41878709  0.04904286     0.41000
H1586       H  0.86818061  0.32445168  0.97530310     0.31000
H1587       H  0.83757996  0.36955558  0.95224324     0.38700
H1588       H  0.60170279  0.08891384  0.98282329     0.30500
H1589       H  0.01955051  0.35973659  0.96840521     0.30600
H1590       H  0.54252367  0.48682202  0.90461769     0.30800
Zr1591     Zr  0.59817801  0.29101247  0.68976941     2.17500
O1592       O  0.61851087  0.24902632  0.71806046    -0.51500
O1593       O  0.57366147  0.32710062  0.71694002    -0.74700
O1594       O  0.66320589  0.34079598  0.70875501    -0.81500
O1595       O  0.48482029  0.19271995  0.68411923    -0.83300
O1596       O  0.71520373  0.37935893  0.68200968    -0.78900
O1597       O  0.54218134  0.22343738  0.70769321    -0.90500
O1598       O  0.56332885  0.38202382  0.69774990    -0.76500
O1599       O  0.62953420  0.36647839  0.67287991    -0.86000
O1600       O  0.53908025  0.29746882  0.67428220    -0.85700
O1601       O  0.64957051  0.29290168  0.66295144    -0.72400
O1602       O  0.56507810  0.22936487  0.66398473    -0.84600
Zr1603     Zr  0.58735336  0.31438552  0.60277548     2.26400
Zr1604     Zr  0.67902392  0.36849900  0.64484563     2.06300
Zr1605     Zr  0.50679825  0.23725708  0.64764464     2.10000
Zr1606     Zr  0.57081398  0.37307519  0.65714982     1.78800
O1607       O  0.46893862  0.15668981  0.63724510    -0.93400
O1608       O  0.61918588  0.45430326  0.66371563    -0.41200
O1609       O  0.53713649  0.31315282  0.63018679    -0.77800
O1610       O  0.62056057  0.37657297  0.62862428    -0.96500
O1611       O  0.64582203  0.30751934  0.61870791    -0.89800
O1612       O  0.55647541  0.23890401  0.61984050    -0.92600
C1613       C  0.56434280  0.36022794  0.71613883     1.01100
C1614       C  0.50384119  0.19356795  0.70303895     1.14100
C1615       C  0.70213499  0.36732440  0.70279953     1.04800
O1616       O  0.71062358  0.45197450  0.64741683    -0.94800
O1617       O  0.70586927  0.39723489  0.60568048    -0.90500
O1618       O  0.64794530  0.37220821  0.58254749    -0.83700
C1619       C  0.68813447  0.39519611  0.58615833     1.11500
O1620       O  0.62318549  0.17967632  0.66329195    -0.96800
Zr1621     Zr  0.61527022  0.23275753  0.63622648     1.88900
O1622       O  0.61131779  0.27682868  0.57538259    -0.73400
O1623       O  0.74850129  0.37177392  0.63963637    -0.52700
O1624       O  0.68769211  0.24279212  0.63379671    -0.97400
O1625       O  0.57090447  0.15084656  0.62910261    -0.54600
O1626       O  0.62492602  0.22577743  0.59613240    -0.73900
C1627       C  0.62285943  0.24529597  0.57727885     0.98400
O1628       O  0.56858532  0.36158043  0.57693140    -0.62700
O1629       O  0.94665842  0.23176079  0.65277868    -0.57500
O1630       O  0.51921695  0.27002608  0.58457523    -0.94200
O1631       O  0.46850933  0.23703348  0.61252714    -0.92700
O1632       O  0.49990616  0.36682115  0.66091753    -0.93000
O1633       O  0.56115031  0.42434702  0.62962497    -0.91800
C1634       C  0.48016710  0.24840638  0.59155642     1.17300
H1635       H  0.51816873  0.29326457  0.68578888     0.33200
H1636       H  0.63157251  0.40582707  0.62030953     0.44100
H1637       H  0.54215963  0.21576361  0.60862913     0.37600
H1638       H  0.67175053  0.28905637  0.67081807     0.34100
H1639       H  0.60072368  0.46613003  0.67015342     0.25800
H1640       H  0.76943130  0.40118136  0.64632021     0.31800
H1641       H  0.70297825  0.26969816  0.62315023     0.37700
H1642       H  0.48228215  0.33647879  0.66875138     0.32200
H1643       H  0.92841946  0.19835240  0.65626174     0.31000
H1644       H  0.99204113  0.14411749  0.65092161     0.32700
H1645       H  0.58927779  0.14249959  0.61987958     0.31700
H1646       H  0.53784914  0.40352697  0.61960850     0.35700
H1647       H  0.53953823  0.35521886  0.58173166     0.28400
H1648       H  0.62094360  0.26429091  0.73264169     0.32600
H1649       H  0.63553323  0.19794868  0.67700575     0.35500
H1650       H  0.44182493  0.24085707  0.67473378     0.28100
H1651       H  0.58713883  0.39382418  0.58139229     0.41000
H1652       H  0.71636528  0.45782307  0.66382521     0.31000
H1653       H  0.63729799  0.45414941  0.67659599     0.38700
H1654       H  0.54843896  0.14906563  0.61846734     0.30500
H1655       H  0.74807057  0.34736339  0.65012670     0.30600
H1656       H  0.64817686  0.25625376  0.71408626     0.30800
C1657       C  0.01157539  0.16700259  0.73953359    -0.16600
C1658       C  0.48032736  0.15971563  0.72159795    -0.31800
H1659       H  0.53651741  0.16516236  0.73703808     0.12400
H1660       H  0.95490202  0.15655346  0.72230736     0.13000
C1661       C  0.50968630  0.11256407  0.88297593    -0.16600
C1662       C  0.53071798  0.11804007  0.90268365    -0.31800
H1663       H  0.47525656  0.08974823  0.88280648     0.12400
H1664       H  0.56481750  0.14175122  0.90365208     0.13000
C1665       C  0.00112100  0.37565609  0.88131969    -0.16600
C1666       C  0.97462538  0.35332813  0.89905276    -0.31800
H1667       H  0.02518253  0.41159550  0.88291681     0.12400
H1668       H  0.95108188  0.31705743  0.89833965     0.13000
C1669       C  0.55403003  0.37305591  0.73816454    -0.16600
C1670       C  0.55640398  0.41432254  0.74162908    -0.31800
H1671       H  0.54787700  0.34903896  0.75257545     0.12400
H1672       H  0.56608676  0.44006229  0.72776010     0.13000
C1673       C  0.85913327  0.45769945  0.89025063    -0.16600
C1674       C  0.85941783  0.43992764  0.86989167    -0.31800
H1675       H  0.83692537  0.47119614  0.89289579     0.12400
H1676       H  0.87842187  0.42257668  0.86726692     0.13000
C1677       C  0.73340165  0.38098558  0.72155108    -0.16600
C1678       C  0.72106083  0.38333127  0.74292211    -0.31800
H1679       H  0.76321705  0.38009406  0.71871063     0.12400
H1680       H  0.69186868  0.38559705  0.74565073     0.13000
C1681       C  0.96112429  0.23458958  0.57073778    -0.16600
C1682       C  0.96898850  0.22449731  0.54995719    -0.31800
H1683       H  0.42263380  0.24803085  0.57606020     0.12400
H1684       H  0.99555196  0.21717580  0.54773730     0.13000
C1685       C  0.65277405  0.25092962  0.53782654    -0.16600
C1686       C  0.63143489  0.22651353  0.55672210    -0.31800
H1687       H  0.66771253  0.28839493  0.53705810     0.12400
H1688       H  0.62004400  0.18945434  0.55767722     0.13000
C1689       C  0.71486196  0.41852736  0.56570224    -0.16600
C1690       C  0.69583958  0.42241397  0.54632705    -0.31800
H1691       H  0.74891212  0.42919004  0.56595117     0.12400
H1692       H  0.66226971  0.41401625  0.54668664     0.13000
C1693       C  0.94852338  0.21040369  0.38593132    -0.16600
C1694       C  0.93779772  0.21767726  0.40664981    -0.31800
H1695       H  0.97666370  0.20595186  0.38359303     0.12400
H1696       H  0.91087821  0.22456382  0.40841598     0.13000
C1697       C  0.76271304  0.23202012  0.38772680    -0.16600
C1698       C  0.74138801  0.20933112  0.40700592    -0.31800
H1699       H  0.77465475  0.26910563  0.38593566     0.12400
H1700       H  0.72662745  0.17190813  0.40848205     0.13000
C1701       C  0.71034730  0.01794532  0.40438075    -0.16600
C1702       C  0.69120716  0.02587622  0.38620950    -0.31800
H1703       H  0.74328424  0.51522005  0.40578303     0.12400
H1704       H  0.65869552  0.02077380  0.38746115     0.13000
C1705       C  0.93909346  0.33302606  0.07149647    -0.16600
C1706       C  0.91940937  0.32539034  0.05128701    -0.31800
H1707       H  0.97271766  0.35862415  0.07252689     0.12400
H1708       H  0.88656378  0.29817629  0.04969413     0.13000
C1709       C  0.92393057  0.26150640  0.21340686    -0.16600
C1710       C  0.94221268  0.25489892  0.23241838    -0.31800
H1711       H  0.88957658  0.24942093  0.21326292     0.12400
H1712       H  0.97670975  0.26870388  0.23346140     0.13000
C1713       C  0.88072360  0.05926258  0.21314287    -0.16600
C1714       C  0.85908427  0.03508074  0.23196386    -0.31800
H1715       H  0.89271362  0.09642012  0.21215545     0.12400
H1716       H  0.84918138  0.99842096  0.23374384     0.13000
C1717       C  0.96713804  0.09741217  0.05419231    -0.16600
C1718       C  0.94386587  0.07468961  0.07296939    -0.31800
H1719       H  0.98865420  0.13435511  0.05429458     0.12400
H1720       H  0.92130570  0.03806952  0.07216189     0.13000
C1721       C  0.69335699  0.06469915  0.21244446    -0.16600
C1722       C  0.68765396  0.08146548  0.23179746    -0.31800
H1723       H  0.70790025  0.04212885  0.21277078     0.12400
H1724       H  0.67088390  0.10178784  0.23182214     0.13000
C1725       C  0.57864657  0.50829771  0.08330219    -0.16600
C1726       C  0.57798694  0.48916065  0.06329737    -0.31800
H1727       H  0.56131907  0.52764811  0.08545566     0.12400
H1728       H  0.59685401  0.96503065  0.06086748     0.13000
C1729       C  0.60539778  0.00065389  0.10116585     0.80000
N1730       N  0.61210218  0.96323756  0.10281931    -0.78300
C1731       C  0.63566860  0.95911219  0.11996501     0.82500
N1732       N  0.65236178  0.99234114  0.13566132    -0.78200
C1733       C  0.64625896  0.53109464  0.13534068     0.82600
N1734       N  0.62214626  0.53640030  0.11839756    -0.79900
C1735       C  0.69716935  0.58137185  0.18999037     0.80000
N1736       N  0.67624413  0.55089314  0.17353681    -0.78300
C1737       C  0.66755441  0.56543072  0.15323111     0.82500
N1738       N  0.68190569  0.61140837  0.14927073    -0.78200
C1739       C  0.70467929  0.64271964  0.16544718     0.82600
N1740       N  0.71191164  0.62741635  0.18588526    -0.79900
C1741       C  0.95662934  0.59722676  0.09627853     0.80000
N1742       N  0.99039644  0.63856750  0.10127542    -0.78300
C1743       C  0.00019583  0.65071624  0.12322089     0.82500
N1744       N  0.97596031  0.62053165  0.14039347    -0.78200
C1745       C  0.94142584  0.57905983  0.13564756     0.82600
N1746       N  0.93249100  0.56755079  0.11349859    -0.79900
C1747       C  0.88786245  0.53478835  0.19221427     0.80000
N1748       N  0.86151059  0.99157586  0.18944921    -0.78300
C1749       C  0.86179612  0.97280955  0.16921025     0.82500
N1750       N  0.88723418  0.00163669  0.15189178    -0.78200
C1751       C  0.91439527  0.54631327  0.15441913     0.82600
N1752       N  0.91421791  0.56288048  0.17525403    -0.79900
C1753       C  0.94872781  0.77859538  0.19439927     0.80000
N1754       N  0.92578947  0.78260455  0.17638223    -0.78300
C1755       C  0.94389543  0.79559495  0.15514525     0.82500
N1756       N  0.98475261  0.80365684  0.15215638    -0.78200
C1757       C  0.50853129  0.79897870  0.17043631     0.82600
N1758       N  0.98961334  0.78692803  0.19098053    -0.79900
C1759       C  0.91445151  0.81128471  0.09533369     0.80000
N1760       N  0.93693705  0.80839982  0.11374106    -0.78300
C1761       C  0.91933469  0.79919281  0.13510106     0.82500
N1762       N  0.87965105  0.79494852  0.13791952    -0.78200
C1763       C  0.85720561  0.79894769  0.11977272     0.82600
N1764       N  0.87467455  0.80691503  0.09850633    -0.79900
Zr1765     Zr  0.75328411  0.80722037  0.16583383     2.17500
O1766       O  0.78331094  0.81143968  0.20364759    -0.51500
O1767       O  0.80821725  0.80151787  0.14499685    -0.74700
O1768       O  0.73855245  0.72532212  0.17437441    -0.81500
O1769       O  0.79777133  0.93836878  0.15053241    -0.83300
O1770       O  0.70243257  0.70024073  0.14262840    -0.78900
O1771       O  0.81344212  0.88871557  0.17136839    -0.90500
O1772       O  0.79298011  0.80018091  0.10715194    -0.76500
O1773       O  0.71532617  0.75805846  0.13562695    -0.86000
O1774       O  0.75964167  0.85181443  0.13167973    -0.85700
O1775       O  0.67912728  0.76111046  0.17844763    -0.72400
O1776       O  0.71897441  0.85258321  0.17450278    -0.84600
Zr1777     Zr  0.61585286  0.80358449  0.12249968     2.26400
Zr1778     Zr  0.64231889  0.71293520  0.14703011     2.06300
Zr1779     Zr  0.72468981  0.89598882  0.13993657     2.10000
Zr1780     Zr  0.72369832  0.80091224  0.10191466     1.78800
O1781       O  0.73979049  0.95873338  0.16539414    -0.93400
O1782       O  0.71339922  0.72901368  0.08590957    -0.41200
O1783       O  0.68903934  0.84715406  0.10906256    -0.77800
O1784       O  0.64849820  0.75692689  0.11266088    -0.96500
O1785       O  0.60897643  0.75782510  0.15593672    -0.89800
O1786       O  0.65252548  0.85263350  0.15298124    -0.92600
C1787       C  0.81658407  0.79986098  0.12401717     1.01100
C1788       C  0.82256034  0.92982843  0.16322757     1.14100
C1789       C  0.71739018  0.69201506  0.16073939     1.04800
O1790       O  0.61657462  0.64046657  0.12755672    -0.94800
O1791       O  0.56683163  0.67502661  0.13847283    -0.90500
O1792       O  0.55220623  0.72649982  0.11878313    -0.83700
C1793       C  0.54145392  0.68567467  0.12735293     1.11500
O1794       O  0.67166066  0.81380263  0.22501132    -0.96800
Zr1795     Zr  0.64510861  0.80704888  0.18615557     1.88900
O1796       O  0.55950209  0.80404837  0.14437884    -0.73400
O1797       O  0.62044765  0.66165615  0.18081224    -0.52700
O1798       O  0.59912681  0.73841609  0.20935974    -0.97400
O1799       O  0.65340126  0.87520847  0.20546129    -0.54600
O1800       O  0.57443972  0.80283588  0.18211259    -0.73900
C1801       C  0.55041517  0.80260919  0.16549137     0.98400
O1802       O  0.58498490  0.79942411  0.08494889    -0.62700
O1803       O  0.75723146  0.94556625  0.10627788    -0.57500
O1804       O  0.62012925  0.88039985  0.11520846    -0.94200
O1805       O  0.68361792  0.93346700  0.12976535    -0.92700
O1806       O  0.77148121  0.86572005  0.07714118    -0.93000
O1807       O  0.69889853  0.79187043  0.06271545    -0.91800
C1808       C  0.64692824  0.92173268  0.12115857     1.17300
H1809       H  0.78921940  0.87133903  0.12725173     0.33200
H1810       H  0.63257665  0.73653234  0.10063127     0.44100
H1811       H  0.64014791  0.87203915  0.15688005     0.37600
H1812       H  0.67782752  0.74272013  0.19190440     0.34100
H1813       H  0.73634649  0.73862268  0.07425872     0.25800
H1814       H  0.59048492  0.65473840  0.18369404     0.31800
H1815       H  0.57001440  0.72732181  0.20308720     0.37700
H1816       H  0.78650365  0.85329742  0.06779069     0.32200
H1817       H  0.76808473  0.97738027  0.11160508     0.31000
H1818       H  0.75506597  0.98738809  0.15583914     0.32700
H1819       H  0.63369712  0.88448226  0.19766795     0.31700
H1820       H  0.68235463  0.80901871  0.06152769     0.35700
H1821       H  0.56486278  0.81204846  0.08677639     0.28400
H1822       H  0.76582602  0.78034139  0.21079271     0.32600
H1823       H  0.64720625  0.80843755  0.23496157     0.35500
H1824       H  0.78336914  0.94289283  0.10329076     0.28100
H1825       H  0.60876262  0.82307666  0.07548789     0.41000
H1826       H  0.61345080  0.64822952  0.11145829     0.31000
H1827       H  0.72176427  0.71348334  0.09811707     0.38700
H1828       H  0.68241009  0.89978187  0.20099393     0.30500
H1829       H  0.61799375  0.63224456  0.17557713     0.30600
H1830       H  0.77483023  0.83155001  0.21194910     0.30800
Zr1831     Zr  0.81402045  0.61983689  0.35674678     2.17500
O1832       O  0.81654535  0.58556353  0.39387671    -0.51500
O1833       O  0.78497165  0.65947000  0.37946155    -0.74700
O1834       O  0.88089862  0.66128604  0.37664874    -0.81500
O1835       O  0.69939254  0.54044621  0.34837360    -0.83300
O1836       O  0.93690935  0.69850016  0.35190449    -0.78900
O1837       O  0.75654194  0.54432026  0.36658323    -0.90500
O1838       O  0.78689449  0.71655589  0.35594625    -0.76500
O1839       O  0.85199034  0.69331176  0.33755663    -0.86000
O1840       O  0.76002773  0.62787437  0.33565278    -0.85700
O1841       O  0.86876862  0.61629283  0.33424448    -0.72400
O1842       O  0.78390858  0.55544011  0.33209346    -0.84600
Zr1843     Zr  0.82213687  0.63298185  0.26862053     2.26400
Zr1844     Zr  0.90525155  0.68962289  0.31368847     2.06300
Zr1845     Zr  0.73106926  0.56482578  0.31007795     2.10000
Zr1846     Zr  0.79785749  0.70080315  0.31668947     1.78800
O1847       O  0.69756332  0.48206646  0.30437730    -0.93400
O1848       O  0.84724111  0.78317629  0.31884185    -0.41200
O1849       O  0.76807450  0.63855185  0.29063754    -0.77800
O1850       O  0.85099378  0.69790653  0.29286022    -0.96500
O1851       O  0.87603251  0.62521641  0.28930083    -0.89800
O1852       O  0.78445059  0.55965495  0.28759041    -0.92600
C1853       C  0.78096119  0.69582134  0.37561538     1.01100
C1854       C  0.71716601  0.53444956  0.36635744     1.14100
C1855       C  0.92094927  0.68578742  0.37216119     1.04800
O1856       O  0.94858326  0.77216478  0.31906838    -0.94800
O1857       O  0.93502707  0.72818753  0.27567388    -0.90500
O1858       O  0.88313779  0.69248500  0.24942554    -0.83700
C1859       C  0.92034373  0.72340941  0.25507255     1.11500
O1860       O  0.84726187  0.51163911  0.34229009    -0.96800
Zr1861     Zr  0.83800015  0.55257558  0.30920199     1.88900
O1862       O  0.84723848  0.58851009  0.24696688    -0.73400
O1863       O  0.96776038  0.67829618  0.30912082    -0.52700
O1864       O  0.90705231  0.55366998  0.30794340    -0.97400
O1865       O  0.78819063  0.47008189  0.30831536    -0.54600
O1866       O  0.84688454  0.53259552  0.27080824    -0.73900
C1867       C  0.85151086  0.55233041  0.25105279     0.98400
O1868       O  0.81166230  0.67530525  0.23640412    -0.62700
O1869       O  0.65870842  0.55557792  0.30954172    -0.57500
O1870       O  0.75927410  0.58495211  0.24801918    -0.94200
O1871       O  0.70344423  0.56752277  0.27182365    -0.92700
O1872       O  0.72784489  0.69754701  0.31662534    -0.93000
O1873       O  0.78878820  0.74568734  0.28535152    -0.91800
C1874       C  0.71986338  0.57234717  0.25182021     1.17300
H1875       H  0.73757088  0.62693387  0.34516676     0.33200
H1876       H  0.86360125  0.72631117  0.28380856     0.44100
H1877       H  0.77146716  0.53487885  0.27705023     0.37600
H1878       H  0.88847624  0.61164759  0.34404309     0.34100
H1879       H  0.85832052  0.78719612  0.33458003     0.23400
H1880       H  0.96401056  0.66404403  0.29413363     0.31800
H1881       H  0.92530945  0.57788666  0.31855059     0.37700
H1882       H  0.70703632  0.66418742  0.31669323     0.32200
H1883       H  0.64000788  0.52321571  0.31483861     0.31000
H1884       H  0.69726135  0.46829298  0.31966343     0.32700
H1885       H  0.80328315  0.96400132  0.30716348     0.31700
H1886       H  0.80039756  0.73813539  0.27181474     0.35700
H1887       H  0.80646026  0.65591148  0.22301425     0.28400
H1888       H  0.82361372  0.60984409  0.40511024     0.32600
H1889       H  0.82245410  0.50457695  0.35232952     0.35500
H1890       H  0.65782659  0.57451929  0.32204375     0.28100
H1891       H  0.78397927  0.67470372  0.23942563     0.41000
H1892       H  0.93663086  0.77809232  0.33296981     0.31000
H1893       H  0.87207687  0.78858424  0.30921300     0.38700
H1894       H  0.77270401  0.46583424  0.29376390     0.30500
H1895       H  0.99197194  0.70986700  0.30675981     0.30600
H1896       H  0.84169084  0.58012582  0.39344772     0.30800
C1897       C  0.71035837  0.92910748  0.51895526     0.80000
N1898       N  0.69236683  0.94390692  0.50242864    -0.78300
C1899       C  0.71137291  0.95864163  0.48173730     0.82500
N1900       N  0.74891717  0.95773398  0.47763941    -0.78200
C1901       C  0.76674055  0.94152681  0.49404714     0.82600
N1902       N  0.74732763  0.92764049  0.51476054    -0.79900
C1903       C  0.69066408  0.00502926  0.42707534     0.80000
N1904       N  0.70887318  0.98941451  0.44317072    -0.78300
C1905       C  0.69146998  0.97649753  0.46431622     0.82500
N1906       N  0.65528780  0.97959270  0.46917582    -0.78200
C1907       C  0.63734978  0.99654436  0.45326165     0.82600
N1908       N  0.65514113  0.00887575  0.43215358    -0.79900
C1909       C  0.66140502  0.71441568  0.52462966     0.80000
N1910       N  0.63002126  0.67043752  0.52261195    -0.78300
C1911       C  0.62849389  0.64604819  0.50441833     0.82500
N1912       N  0.65883869  0.66526203  0.48785297    -0.78200
C1913       C  0.69105094  0.70886000  0.48935943     0.82600
N1914       N  0.69200180  0.73423339  0.50772474    -0.79900
C1915       C  0.75055727  0.72186279  0.43459885     0.80000
N1916       N  0.72059248  0.70287430  0.45178908    -0.78300
C1917       C  0.72298682  0.72824169  0.47038443     0.82500
N1918       N  0.75598247  0.77143422  0.47179418    -0.78200
C1919       C  0.78603557  0.79000914  0.45498770     0.82600
N1920       N  0.78315553  0.76537924  0.43653001    -0.79900
C1921       C  0.92995933  0.72617364  0.53468662     0.80000
N1922       N  0.94122135  0.70871277  0.51665704    -0.78300
C1923       C  0.93878359  0.72314375  0.49486717     0.82500
N1924       N  0.92646041  0.75632054  0.49157553    -0.78200
C1925       C  0.91545590  0.77434393  0.50938544     0.82600
N1926       N  0.91769588  0.75917470  0.53082235    -0.79900
C1927       C  0.95458076  0.69988128  0.43472557     0.80000
N1928       N  0.97327467  0.67219872  0.43762924    -0.78300
C1929       C  0.49327143  0.67201156  0.45845196     0.82500
N1930       N  0.48741475  0.69250846  0.47701739    -0.78200
C1931       C  0.47311800  0.72427870  0.47490401     0.82600
N1932       N  0.94400073  0.71615995  0.45331047    -0.79900
Zr1933     Zr  0.88538723  0.90507391  0.49975314     2.17500
O1934       O  0.85724987  0.87918657  0.53823633    -0.51500
O1935       O  0.82887646  0.84732612  0.47902227    -0.74700
O1936       O  0.82234459  0.91982393  0.50219284    -0.81500
O1937       O  0.95958185  0.84980235  0.49938129    -0.83300
O1938       O  0.83306041  0.97600220  0.47548703    -0.78900
O1939       O  0.89124926  0.83277547  0.50864193    -0.90500
O1940       O  0.85189499  0.85286979  0.44238582    -0.76500
O1941       O  0.87955204  0.93768318  0.46385456    -0.86000
O1942       O  0.92656273  0.89187459  0.47185863    -0.85700
O1943       O  0.91371688  0.98631342  0.50579942    -0.72400
O1944       O  0.95759904  0.94182699  0.51398425    -0.84600
Zr1945     Zr  0.52574596  0.54301656  0.45653896     2.26400
Zr1946     Zr  0.91304290  0.51975943  0.47404268     2.06300
Zr1947     Zr  0.99797463  0.92784133  0.48575782     2.10000
Zr1948     Zr  0.92020606  0.92373184  0.43654720     1.78800
O1949       O  0.53746062  0.88404183  0.49243077    -0.93400
O1950       O  0.87176287  0.93393938  0.41018566    -0.41200
O1951       O  0.99338354  0.95989943  0.44927931    -0.77800
O1952       O  0.95069229  0.51025880  0.44249980    -0.96500
O1953       O  0.98496953  0.54931209  0.48600033    -0.89800
O1954       O  0.53005592  0.00267035  0.48805575    -0.92600
C1955       C  0.82453206  0.83327693  0.45875160     1.01100
C1956       C  0.92162600  0.82175250  0.50604603     1.14100
C1957       C  0.80974303  0.94517714  0.49032112     1.04800
O1958       O  0.89476250  0.55115214  0.44005828    -0.94800
O1959       O  0.97058224  0.59568161  0.47999733    -0.90500
O1960       O  0.51539460  0.61344594  0.44934568    -0.83700
C1961       C  0.98980375  0.62130712  0.46276979     1.11500
O1962       O  0.96673799  0.01166760  0.55802042    -0.96800
Zr1963     Zr  0.99070671  0.51231616  0.51946148     1.88900
O1964       O  0.58243235  0.59628598  0.47872760    -0.73400
O1965       O  0.88717676  0.56619672  0.49349379    -0.52700
O1966       O  0.97896634  0.57263197  0.53556514    -0.97400
O1967       O  0.54640454  0.00072259  0.53974639    -0.54600
O1968       O  0.56349961  0.58185355  0.51630529    -0.73900
C1969       C  0.58927852  0.60471248  0.49977035     0.98400
O1970       O  0.56115245  0.57832884  0.42038557    -0.62700
O1971       O  0.01779567  0.88123063  0.46227419    -0.57500
O1972       O  0.58642985  0.52395857  0.45143524    -0.94200
O1973       O  0.57180747  0.96155102  0.47209313    -0.92700
O1974       O  0.93545139  0.86493634  0.42159833    -0.93000
O1975       O  0.94736835  0.94077490  0.39755261    -0.91800
C1976       C  0.59516095  0.99402948  0.45799724     1.17300
H1977       H  0.91602877  0.85958432  0.46902154     0.33200
H1978       H  0.94998712  0.52758357  0.42903565     0.44100
H1979       H  0.55819603  0.51138596  0.49472561     0.37600
H1980       H  0.89611110  0.99089076  0.51681018     0.34100
H1981       H  0.85472995  0.90330271  0.40349931     0.25800
H1982       H  0.86515761  0.56739437  0.48344077     0.31800
H1983       H  0.50845647  0.60491459  0.53214246     0.37700
H1984       H  0.90821005  0.84227339  0.41476096     0.32200
H1985       H  0.51271856  0.87877726  0.44278724     0.31000
H1986       H  0.53651496  0.86422504  0.47992133     0.32700
H1987       H  0.56553531  0.50940566  0.53851993     0.31700
H1988       H  0.97527975  0.96918862  0.39851297     0.35700
H1989       H  0.53914164  0.58170314  0.41127212     0.28400
H1990       H  0.85765112  0.90657843  0.54492808     0.32600
H1991       H  0.93771540  0.46684963  0.55821443     0.35500
H1992       H  0.99066013  0.85871218  0.45529203     0.28100
H1993       H  0.58230951  0.61031844  0.42408342     0.41000
H1994       H  0.86032598  0.01629551  0.42995030     0.31000
H1995       H  0.85113786  0.93757178  0.42004006     0.38700
H1996       H  0.54110122  0.96994843  0.53490749     0.30500
H1997       H  0.87124412  0.54750003  0.50710629     0.30600
H1998       H  0.88015760  0.87566808  0.54635433     0.30800
C1999       C  0.74777161  0.87422928  0.75631317     0.80000
N2000       N  0.74016275  0.82970440  0.75777218    -0.78300
C2001       C  0.75108211  0.81315958  0.77671463     0.82500
N2002       N  0.77143006  0.84208971  0.79415597    -0.78200
C2003       C  0.77888684  0.88676678  0.79316969     0.82600
N2004       N  0.76594153  0.90215485  0.77426586    -0.79900
C2005       C  0.83732135  0.94133298  0.84745139     0.80000
N2006       N  0.83244129  0.97994784  0.84690749    -0.78300
C2007       C  0.81128045  0.98813019  0.82968674     0.82500
N2008       N  0.79460604  0.95741820  0.81281249    -0.78200
C2009       C  0.79901009  0.91873594  0.81257671     0.82600
N2010       N  0.82064173  0.91051149  0.83014862    -0.79900
C2011       C  0.55091171  0.92363789  0.76476731     0.80000
N2012       N  0.57968255  0.96826989  0.76907347    -0.78300
C2013       C  0.58455417  0.98383524  0.79064908     0.82500
N2014       N  0.56121544  0.95340897  0.80804405    -0.78200
C2015       C  0.53164225  0.90890950  0.80377411     0.82600
N2016       N  0.52711350  0.89459313  0.78210634    -0.79900
C2017       C  0.99592194  0.85758655  0.85659524     0.80000
N2018       N  0.96288880  0.81537249  0.85206941    -0.78300
C2019       C  0.95138401  0.80320640  0.83023316     0.82500
N2020       N  0.97296036  0.83437894  0.81275831    -0.78200
C2021       C  0.50704449  0.87437611  0.82239954     0.82600
N2022       N  0.51852340  0.88292670  0.84457959    -0.79900
C2023       C  0.53334548  0.64046290  0.86106068     0.80000
N2024       N  0.57392618  0.64740056  0.85763244    -0.78300
C2025       C  0.59071461  0.65553034  0.83620722     0.82500
N2026       N  0.56649467  0.65649065  0.81819219    -0.78200
C2027       C  0.52596674  0.64961158  0.82150681     0.82600
N2028       N  0.50950552  0.64092979  0.84296301    -0.79900
C2029       C  0.98174268  0.63885928  0.76094090     0.80000
N2030       N  0.00773957  0.64140762  0.77865715    -0.78300
C2031       C  0.99407094  0.63827119  0.80051657     0.82500
N2032       N  0.95458632  0.63344358  0.80448084    -0.78200
C2033       C  0.92854214  0.63123641  0.78695140     0.82600
N2034       N  0.94226281  0.63421058  0.76518469    -0.79900
Zr2035     Zr  0.69572347  0.64883407  0.79057761     2.17500
O2036       O  0.66525194  0.64666730  0.75307061    -0.51500
O2037       O  0.64008101  0.65390639  0.81091582    -0.74700
O2038       O  0.63530540  0.56772277  0.78614697    -0.81500
O2039       O  0.78127011  0.76426486  0.77477030    -0.83300
O2040       O  0.64026520  0.52640934  0.81654567    -0.78900
O2041       O  0.71063097  0.72988703  0.78151964    -0.90500
O2042       O  0.65732063  0.65980565  0.84854142    -0.76500
O2043       O  0.68759039  0.60900378  0.82633768    -0.86000
O2044       O  0.73735577  0.70423354  0.81844983    -0.85700
O2045       O  0.72300018  0.59564484  0.78455613    -0.72400
O2046       O  0.76892112  0.68587375  0.77683344    -0.84600
Zr2047     Zr  0.83022603  0.64719002  0.83398453     2.26400
Zr2048     Zr  0.71605325  0.55764757  0.82110647     2.06300
Zr2049     Zr  0.81007581  0.73924836  0.80551279     2.10000
Zr2050     Zr  0.72851312  0.66357389  0.85360552     1.78800
O2051       O  0.85663732  0.81324847  0.78630311    -0.93400
O2052       O  0.68563735  0.60353870  0.88184199    -0.41200
O2053       O  0.80271714  0.69980300  0.84127078    -0.77800
O2054       O  0.75784830  0.61141790  0.84914151    -0.96500
O2055       O  0.78730746  0.59339696  0.80675408    -0.89800
O2056       O  0.83766982  0.68767263  0.79844954    -0.92600
C2057       C  0.63232725  0.65703462  0.83180176     1.01100
C2058       C  0.74679970  0.76634089  0.77717556     1.14100
C2059       C  0.62095304  0.53005875  0.79886955     1.04800
O2060       O  0.68997279  0.51513825  0.85734367    -0.94800
O2061       O  0.75659856  0.51737477  0.82697369    -0.90500
O2062       O  0.82304747  0.56838623  0.83921585    -0.83700
C2063       C  0.79422318  0.52743594  0.83374170     1.11500
O2064       O  0.76800809  0.62326436  0.73280072    -0.96800
Zr2065     Zr  0.79608601  0.63273119  0.77134731     1.88900
O2066       O  0.88351254  0.63949586  0.81262717    -0.73400
O2067       O  0.68490896  0.48802335  0.79893898    -0.52700
O2068       O  0.77819712  0.55732812  0.75683479    -0.97400
O2069       O  0.84353106  0.69141793  0.74368046    -0.54600
O2070       O  0.86284929  0.62820665  0.77554051    -0.73900
C2071       C  0.88872043  0.63239383  0.79190251     0.98400
O2072       O  0.85637834  0.64570486  0.87230325    -0.62700
O2073       O  0.80583017  0.78835463  0.83438899    -0.57500
O2074       O  0.89531532  0.72427602  0.83691986    -0.94200
O2075       O  0.88564916  0.77347560  0.81240073    -0.92700
O2076       O  0.73878975  0.73579488  0.86917239    -0.93000
O2077       O  0.75957993  0.68265483  0.89136432    -0.91800
C2078       C  0.90858247  0.76381055  0.82608635     1.17300
H2079       H  0.72807554  0.72707580  0.82066059     0.33200
H2080       H  0.75669937  0.59562837  0.86348926     0.44100
H2081       H  0.86690462  0.70360228  0.79298576     0.37600
H2082       H  0.70564281  0.57314623  0.77360927     0.34100
H2083       H  0.67143407  0.61731653  0.89088381     0.25800
H2084       H  0.72621042  0.99396429  0.78186008     0.31800
H2085       H  0.78667887  0.54190979  0.76905428     0.37700
H2086       H  0.71524885  0.74074909  0.86291727     0.32200
H2087       H  0.83349909  0.80042199  0.84245711     0.31000
H2088       H  0.86219177  0.83707010  0.79758115     0.32700
H2089       H  0.87274384  0.70271876  0.74984683     0.31700
H2090       H  0.78468387  0.67718045  0.89088677     0.35700
H2091       H  0.84687887  0.66426977  0.88117212     0.28400
H2092       H  0.69041993  0.66407446  0.74290799     0.32600
H2093       H  0.73668319  0.60332484  0.73460740     0.35500
H2094       H  0.80729491  0.81556574  0.82597072     0.28100
H2095       H  0.83844510  0.61361686  0.87821287     0.41000
H2096       H  0.65889505  0.50522611  0.85765094     0.31000
H2097       H  0.66217326  0.57959581  0.87302533     0.38700
H2098       H  0.83743044  0.71757562  0.74524884     0.30500
H2099       H  0.67685618  0.46221756  0.81027847     0.30600
H2100       H  0.65163101  0.66674696  0.75397354     0.30800
Zr2101     Zr  0.98390926  0.98248379  0.93190472     2.17500
O2102       O  0.51901474  0.99230366  0.90094691    -0.51500
O2103       O  0.92418158  0.96047142  0.90545048    -0.74700
O2104       O  0.98605416  0.92014142  0.91306511    -0.81500
O2105       O  0.51293639  0.60477386  0.94201441    -0.83300
O2106       O  0.96317346  0.85756696  0.93741467    -0.78900
O2107       O  0.49796941  0.55137537  0.91496562    -0.90500
O2108       O  0.86810803  0.95052584  0.92756456    -0.76500
O2109       O  0.92561393  0.91685876  0.94943476    -0.86000
O2110       O  0.94995720  0.52212431  0.95101071    -0.85700
O2111       O  0.01601718  0.94847135  0.95689605    -0.72400
O2112       O  0.52136909  0.53096904  0.95863760    -0.84600
Zr2113     Zr  0.96462723  0.96796318  0.02035493     2.26400
Zr2114     Zr  0.95677894  0.88357872  0.97550408     2.06300
Zr2115     Zr  0.00002311  0.57452378  0.97742249     2.10000
Zr2116     Zr  0.88600723  0.94764613  0.96777623     1.78800
O2117       O  0.54117166  0.63931175  0.98268234    -0.93400
O2118       O  0.82868623  0.87056259  0.96003105    -0.41200
O2119       O  0.94056693  0.51089498  0.99610779    -0.77800
O2120       O  0.91553685  0.91324466  0.99422390    -0.96500
O2121       O  0.00464127  0.93745598  0.00194716    -0.89800
O2122       O  0.51290258  0.52822493  0.00355236    -0.92600
C2123       C  0.88557197  0.95331306  0.90806734     1.01100
C2124       C  0.51276216  0.59293930  0.92133468     1.14100
C2125       C  0.97606737  0.87793797  0.91767069     1.04800
O2126       O  0.89571546  0.80799544  0.96967235    -0.94800
O2127       O  0.93229758  0.84154667  0.01293937    -0.90500
O2128       O  0.94528824  0.89532078  0.03947662    -0.83700
C2129       C  0.93299824  0.85388700  0.03368225     1.11500
O2130       O  0.60646361  0.01931960  0.95546572    -0.96800
Zr2131     Zr  0.55018501  0.99091655  0.98443122     1.88900
O2132       O  0.02624048  0.99055834  0.04534863    -0.73400
O2133       O  0.00593982  0.85200297  0.98135503    -0.52700
O2134       O  0.58650309  0.94428927  0.98204939    -0.97400
O2135       O  0.60865867  0.57353332  0.99129415    -0.54600
O2136       O  0.56824855  0.98349817  0.02353546    -0.73900
C2137       C  0.55198201  0.98211118  0.04308482     0.98400
O2138       O  0.91299599  0.93948527  0.05187300    -0.62700
O2139       O  0.95762555  0.61424854  0.97136752    -0.57500
O2140       O  0.97193155  0.53711165  0.04015299    -0.94200
O2141       O  0.99135619  0.59885868  0.01559675    -0.92700
O2142       O  0.86317800  0.51380393  0.96772462    -0.93000
O2143       O  0.82799093  0.92123411  0.99565314    -0.91800
C2144       C  0.97991681  0.57863945  0.03546996     1.17300
H2145       H  0.94022230  0.53828713  0.94049043     0.33200
H2146       H  0.89203268  0.88847721  0.00261245     0.44100
H2147       H  0.53078169  0.55018948  0.01456950     0.37600
H2148       H  0.52101544  0.92552586  0.95024033     0.34100
H2149       H  0.80720638  0.87582350  0.95140640     0.25800
H2150       H  0.98854036  0.81871201  0.97841586     0.31800
H2151       H  0.57942318  0.92582199  0.99653950     0.37700
H2152       H  0.85825280  0.01244070  0.95249856     0.32200
H2153       H  0.93758173  0.60435042  0.98452232     0.31000
H2154       H  0.52746353  0.65898656  0.98492628     0.32700
H2155       H  0.60981062  0.57639903  0.00803400     0.31700
H2156       H  0.84145753  0.92077874  0.01042110     0.35700
H2157       H  0.92832022  0.95749071  0.06523013     0.28400
H2158       H  0.50337395  0.97237480  0.88818969     0.32600
H2159       H  0.59334858  0.02567773  0.94179362     0.35500
H2160       H  0.97788059  0.64713839  0.97389924     0.28100
H2161       H  0.89140858  0.94952958  0.04800654     0.41000
H2162       H  0.87064135  0.81097270  0.97477207     0.31000
H2163       H  0.84095794  0.85841709  0.94871320     0.38700
H2164       H  0.59764777  0.59454168  0.98565227     0.30500
H2165       H  0.02629793  0.86456830  0.96834139     0.30600
H2166       H  0.54156829  0.98385467  0.90509016     0.30800
Zr2167     Zr  0.59538583  0.81209646  0.68813782     2.17500
O2168       O  0.59884905  0.78667347  0.72732922    -0.51500
O2169       O  0.57915732  0.86440263  0.70903696    -0.74700
O2170       O  0.66604958  0.84979410  0.70415089    -0.81500
O2171       O  0.48358995  0.70848565  0.68501981    -0.83300
O2172       O  0.71559833  0.88485607  0.67598047    -0.78900
O2173       O  0.54275940  0.74246443  0.70697110    -0.90500
O2174       O  0.57697977  0.91780891  0.68447597    -0.76500
O2175       O  0.62848991  0.88202404  0.66581177    -0.86000
O2176       O  0.53745954  0.81742814  0.67029282    -0.85700
O2177       O  0.64354073  0.80198851  0.66320950    -0.72400
O2178       O  0.56054695  0.74399894  0.66631276    -0.84600
Zr2179     Zr  0.58057108  0.80835756  0.59873943     2.26400
Zr2180     Zr  0.67493287  0.87174685  0.63998070     2.06300
Zr2181     Zr  0.50312765  0.75009843  0.64792682     2.10000
Zr2182     Zr  0.57075690  0.88627138  0.64689011     1.78800
O2183       O  0.44221393  0.67257282  0.64972042    -0.93400
O2184       O  0.61980971  0.96872872  0.64141152    -0.41200
O2185       O  0.53370645  0.81895162  0.62430181    -0.77800
O2186       O  0.61725433  0.87734132  0.62052403    -0.96500
O2187       O  0.63874732  0.80451699  0.61754518    -0.89800
O2188       O  0.54915488  0.73931976  0.62187318    -0.92600
C2189       C  0.57660800  0.90143063  0.70461546     1.01100
C2190       C  0.50431300  0.71132363  0.70348947     1.14100
C2191       C  0.70472436  0.87326046  0.69710233     1.04800
O2192       O  0.71395168  0.95561878  0.64142566    -0.94800
O2193       O  0.70019512  0.89751404  0.60071123    -0.90500
O2194       O  0.64197706  0.86402709  0.57778064    -0.83700
C2195       C  0.68186056  0.89063292  0.58115996     1.11500
O2196       O  0.61326412  0.68829967  0.67155399    -0.96800
Zr2197     Zr  0.60745252  0.73550517  0.64021889     1.88900
O2198       O  0.60806584  0.76643130  0.57649885    -0.73400
O2199       O  0.73904758  0.86460629  0.63289139    -0.52700
O2200       O  0.67761414  0.73908977  0.64306752    -0.97400
O2201       O  0.55576502  0.65398843  0.63680909    -0.54600
O2202       O  0.62181228  0.72114496  0.60159230    -0.73900
C2203       C  0.62115762  0.73689496  0.58136601     0.98400
O2204       O  0.55780101  0.84040398  0.56674707    -0.62700
O2205       O  0.94193392  0.72709840  0.64886686    -0.57500
O2206       O  0.51113219  0.75884536  0.58081993    -0.94200
O2207       O  0.46744774  0.72479392  0.61151012    -0.92700
O2208       O  0.50146984  0.88248447  0.65361673    -0.93000
O2209       O  0.55119228  0.92302746  0.61569007    -0.91800
C2210       C  0.47450126  0.73097944  0.58990419     1.17300
H2211       H  0.51779542  0.81830264  0.68129247     0.33200
H2212       H  0.62890354  0.90423205  0.61037433     0.44100
H2213       H  0.53367262  0.71254263  0.61280093     0.37600
H2214       H  0.66508465  0.79814661  0.67178370     0.34100
H2215       H  0.63359376  0.97898271  0.65635003     0.25800
H2216       H  0.76313269  0.89397960  0.63787236     0.31800
H2217       H  0.68530953  0.73522919  0.62743850     0.37700
H2218       H  0.50785316  0.90994168  0.66255020     0.32200
H2219       H  0.92009029  0.69868393  0.64179280     0.31000
H2220       H  0.98990255  0.63386820  0.63205953     0.32700
H2221       H  0.55120587  0.64917814  0.62026351     0.31700
H2222       H  0.56758576  0.92200616  0.60236498     0.35700
H2223       H  0.57150898  0.87402963  0.56915720     0.28400
H2224       H  0.61070452  0.81472790  0.73648771     0.32600
H2225       H  0.61675134  0.66349039  0.66438593     0.35500
H2226       H  0.43186875  0.75582959  0.66654445     0.28100
H2227       H  0.57252353  0.83729393  0.55319200     0.41000
H2228       H  0.74369765  0.96395472  0.63700766     0.31000
H2229       H  0.64310421  0.97078433  0.63149537     0.38700
H2230       H  0.52844993  0.65105053  0.64266931     0.30500
H2231       H  0.73767559  0.84101966  0.64425887     0.30600
H2232       H  0.62108118  0.77658070  0.72749517     0.30800
C2233       C  0.00001492  0.65059175  0.73774189    -0.16600
C2234       C  0.48279944  0.67819078  0.72261561    -0.31800
H2235       H  0.54050853  0.68822178  0.73809285     0.12400
H2236       H  0.94366764  0.63938608  0.71999900     0.13000
C2237       C  0.51151467  0.62196588  0.88310768    -0.16600
C2238       C  0.53206686  0.62859333  0.90303740    -0.31800
H2239       H  0.47769240  0.59675267  0.88247799     0.12400
H2240       H  0.56527028  0.65496419  0.90450094     0.13000
C2241       C  0.00334148  0.87493064  0.87994271    -0.16600
C2242       C  0.97832605  0.85174898  0.89815603    -0.31800
H2243       H  0.02656940  0.91120615  0.88141710     0.12400
H2244       H  0.95583045  0.81513783  0.89750501     0.13000
C2245       C  0.57319161  0.92661585  0.72419399    -0.16600
C2246       C  0.55039189  0.90300023  0.74275309    -0.31800
H2247       H  0.58994266  0.96413588  0.72355657     0.12400
H2248       H  0.53220313  0.86554109  0.74231290     0.13000
C2249       C  0.85991577  0.95202287  0.88765813    -0.16600
C2250       C  0.86040314  0.93399023  0.86729796    -0.31800
H2251       H  0.83903972  0.96739135  0.88971192     0.12400
H2252       H  0.87806200  0.91498681  0.86520595     0.13000
C2253       C  0.73784075  0.88295414  0.71479709    -0.16600
C2254       C  0.73044862  0.88927937  0.73663623    -0.31800
H2255       H  0.76421399  0.87628874  0.71085246     0.12400
H2256       H  0.70517323  0.89787466  0.74035023     0.13000
C2257       C  0.96693228  0.70260378  0.56420809    -0.16600
C2258       C  0.93875307  0.71758772  0.55866958    -0.31800
H2259       H  0.41434181  0.66889650  0.58602063     0.12400
H2260       H  0.92938781  0.73374693  0.57173087     0.13000
C2261       C  0.65762960  0.74043740  0.54400856    -0.16600
C2262       C  0.63397256  0.71686087  0.56264631    -0.31800
H2263       H  0.67160625  0.77778424  0.54252362     0.12400
H2264       H  0.62318899  0.68000159  0.56454240     0.13000
C2265       C  0.70784601  0.91342516  0.56060170    -0.16600
C2266       C  0.68816937  0.91323031  0.54088881    -0.31800
H2267       H  0.74250133  0.92842750  0.56129401     0.12400
H2268       H  0.65378526  0.90090506  0.54063759     0.13000
C2269       C  0.94978683  0.69729231  0.39209448    -0.16600
C2270       C  0.93636781  0.70358710  0.41245432    -0.31800
H2271       H  0.97962602  0.69587149  0.39064581     0.12400
H2272       H  0.90774859  0.70771432  0.41310698     0.13000
C2273       C  0.77130133  0.71739322  0.39502245    -0.16600
C2274       C  0.75100278  0.69510653  0.41466532    -0.31800
H2275       H  0.78266125  0.75436201  0.39313994     0.12400
H2276       H  0.73672490  0.65775545  0.41643400     0.13000
C2277       C  0.71154561  0.51225920  0.40692149    -0.16600
C2278       C  0.69260905  0.51785069  0.38796862    -0.31800
H2279       H  0.74229350  0.02154715  0.40275521     0.12400
H2280       H  0.66030608  0.51348229  0.38873378     0.13000
C2281       C  0.93656766  0.82880607  0.07302441    -0.16600
C2282       C  0.91627396  0.81909294  0.05277920    -0.31800
H2283       H  0.96971220  0.85587076  0.07354928     0.12400
H2284       H  0.88385772  0.79077864  0.05162651     0.13000
C2285       C  0.92707532  0.75905092  0.21664613    -0.16600
C2286       C  0.94669842  0.75449065  0.23585888    -0.31800
H2287       H  0.89241145  0.74443141  0.21661646     0.12400
H2288       H  0.98140187  0.77076658  0.23676001     0.13000
C2289       C  0.88275612  0.55590670  0.21304814    -0.16600
C2290       C  0.86127400  0.53102836  0.23170618    -0.31800
H2291       H  0.89565787  0.59320145  0.21263372     0.12400
H2292       H  0.85046558  0.49411305  0.23282754     0.13000
C2293       C  0.97668536  0.60410131  0.05502942    -0.16600
C2294       C  0.95086054  0.58021532  0.07289736    -0.31800
H2295       H  0.99877440  0.64078312  0.05595113     0.12400
H2296       H  0.92789859  0.54396346  0.07107874     0.13000
C2297       C  0.70941980  0.56557680  0.21086824    -0.16600
C2298       C  0.69377495  0.56720917  0.23140673    -0.31800
H2299       H  0.73684462  0.55949002  0.20947772     0.12400
H2300       H  0.66571906  0.57217004  0.23271236     0.13000
C2301       C  0.58020671  0.00456020  0.08195904    -0.16600
C2302       C  0.57778846  0.98260351  0.06273238    -0.31800
H2303       H  0.56437144  0.02564352  0.08334832     0.12400
H2304       H  0.59862391  0.47356285  0.06098997     0.13000
loop_ 
_geom_bond_atom_site_label_1 
_geom_bond_atom_site_label_2 
_geom_bond_distance 
_geom_bond_site_symmetry_2 
_ccdc_geom_bond_type 
C1            N2   1.362       .  A
C1          N582   1.370       .  A
C1          C573   1.476       .  S
N2            C3   1.350       .  A
C3            N4   1.357       .  A
C3           C80   1.462       .  S
N4          C581   1.352       .  A
C5            N6   1.364       .  A
C5          N580   1.352   1_545  A
C5            C9   1.478       .  S
N6          C577   1.367       .  A
C7            N8   1.357       .  A
C7           N12   1.362       .  A
C7          C569   1.462       .  S
N8            C9   1.357       .  A
C9           N10   1.356       .  A
N10          C11   1.366       .  A
C11          N12   1.358       .  A
C11          C61   1.473       .  S
C13          N14   1.361       .  A
C13          N18   1.363       .  A
C13         C566   1.478       .  S
N14          C15   1.359       .  A
C15          N16   1.373       .  A
C15        C1217   1.482       .  S
N16          C17   1.368       .  A
C17          N18   1.359       .  A
C17          C23   1.503       .  S
C19          N24   1.365       .  A
C19         N596   1.363   1_545  A
C19         C561   1.488       .  S
N20          C21   1.361       .  A
N20         C595   1.364       .  A
C21          N22   1.373       .  A
C21          C60   1.487       .  S
N22         C599   1.369       .  A
C23          N24   1.362       .  A
C23         N598   1.370   1_545  A
C25          N26   1.366       .  A
C25          N30   1.360       .  A
C25         C557   1.480       .  S
N26          C27   1.361       .  A
C27          N28   1.355       .  A
C27          C33   1.484       .  S
N28        C1181   1.360       .  A
C29        N1180   1.359   1_455  A
C29        N1182   1.357   1_455  A
C29          C73   1.466       .  S
N30        C1181   1.359       .  A
C31          N32   1.362       .  A
C31          N36   1.358       .  A
C31         C553   1.473       .  S
N32          C33   1.362       .  A
C33          N34   1.359       .  A
N34          C35   1.363       .  A
C35          N36   1.356       .  A
C35          C59   1.472       .  S
Zr37         O38   2.437       .  S
Zr37         O39   2.395       .  S
Zr37         O40   2.494       .  S
Zr37         O43   2.541       .  S
Zr37         O45   2.392       .  S
Zr37         O46   2.385       .  S
Zr37         O47   2.435       .  S
Zr37         O48   2.403       .  S
O38          H94   0.990       .  S
O38         H102   0.990       .  S
O39          C59   1.278       .  A
O40          C61   1.289       .  A
O41         Zr51   2.375       .  S
O41          C60   1.272       .  A
O42         Zr50   2.382       .  S
O42          C61   1.265       .  A
O43          C60   1.306       .  A
O44         Zr52   2.469       .  S
O44          C59   1.292       .  A
O45         Zr50   2.382       .  S
O45         Zr52   2.340       .  S
O46         Zr51   2.376       .  S
O46         Zr52   2.367       .  S
O46          H81   0.966       .  S
O47         Zr50   2.412       .  S
O47         Zr67   2.394       .  S
O47          H84   0.965       .  S
O48         Zr51   2.395       .  S
O48         Zr67   2.415       .  S
Zr49         O74   2.435       .  S
Zr49         O68   2.395       .  S
Zr49         O76   2.482       .  S
Zr49         O64   2.502       .  S
Zr49         O55   2.414       .  S
Zr49         O56   2.408       .  S
Zr49         O57   2.367       .  S
Zr49         O58   2.384       .  S
Zr50         O69   2.437       .  S
Zr50         O62   2.437       .  S
Zr50         O63   2.408       .  S
Zr50         O56   2.390       .  S
Zr50         O57   2.366       .  S
Zr51         O53   2.436       .  S
Zr51         O75   2.437       .  S
Zr51         O77   2.371       .  S
Zr51         O55   2.387       .  S
Zr51         O58   2.377       .  S
Zr52         O78   2.438       .  S
Zr52         O79   2.436       .  S
Zr52         O54   2.439       .  S
Zr52         O55   2.411       .  S
Zr52         O56   2.424       .  S
O53          H90   0.990       .  S
O54          H85   0.990       .  S
O54          H99   0.990       .  S
O56          H82   0.966       .  S
O57         Zr67   2.360       .  S
O58         Zr67   2.360       .  S
O58          H83   0.965       .  S
O62          H98   0.990       .  S
O63          C65   1.279       .  A
O64          C65   1.299       .  A
C65        C1167   1.484   1_455  S
O66         Zr67   2.434       .  S
O66          H95   0.990       .  S
Zr67         O70   2.436       .  S
Zr67         O71   2.438       .  S
Zr67         O72   2.455       .  S
O68          C73   1.279       .  A
O69          H86   0.990       .  S
O69         H101   0.990       .  S
O70          H87   0.990       .  S
O71          H91   0.990       .  S
O71         H100   0.990       .  S
O72          C73   1.288       .  A
O74          H93   0.990       .  S
O74          H97   0.990       .  S
O75          H89   0.990       .  S
O75          H96   0.990       .  S
O76          C80   1.294       .  A
O77          C80   1.274       .  A
O78          H88   0.990       .  S
O79          H92   0.990       .  S
Zr103       O104   2.445       .  S
Zr103       O105   2.447       .  S
Zr103       O106   2.419       .  S
Zr103       O109   2.404       .  S
Zr103       O111   2.381       .  S
Zr103       O112   2.382       .  S
Zr103       O113   2.413       .  S
Zr103       O114   2.403       .  S
O104        H160   0.990       .  S
O104        H168   0.991       .  S
O105        C125   1.284       .  A
O106        C127   1.281       .  A
O107       Zr117   2.460       .  S
O107        C126   1.285       .  A
O108       Zr116   2.454       .  S
O108        C127   1.286       .  A
O109        C126   1.277       .  A
O110       Zr118   2.436       .  S
O110        C125   1.283       .  A
O111       Zr116   2.415       .  S
O111       Zr118   2.380       .  S
O112       Zr117   2.399       .  S
O112       Zr118   2.370       .  S
O112        H147   0.967       .  S
O113       Zr116   2.412       .  S
O113       Zr133   2.395       .  S
O113        H150   0.965       .  S
O114       Zr117   2.398       .  S
O114       Zr133   2.401       .  S
Zr115       O140   2.441       .  S
Zr115       O134   2.442       .  S
Zr115       O142   2.397       .  S
Zr115       O130   2.388       .  S
Zr115       O121   2.402       .  S
Zr115       O122   2.402       .  S
Zr115       O123   2.366       .  S
Zr115       O124   2.382       .  S
Zr116       O135   2.436       .  S
Zr116       O128   2.435       .  S
Zr116       O129   2.490       .  S
Zr116       O122   2.393       .  S
Zr116       O123   2.391       .  S
Zr117       O119   2.435   1_545  S
Zr117       O141   2.438       .  S
Zr117       O143   2.456       .  S
Zr117       O121   2.394       .  S
Zr117       O124   2.399       .  S
Zr118       O144   2.436       .  S
Zr118       O145   2.435       .  S
Zr118       O120   2.437       .  S
Zr118       O121   2.396       .  S
Zr118       O122   2.397       .  S
O119        H156   0.990       .  S
O120        H151   0.990       .  S
O120        H165   0.990       .  S
O122        H148   0.964       .  S
O123       Zr133   2.377       .  S
O124       Zr133   2.373       .  S
O124        H149   0.965       .  S
C125        C545   1.481       .  S
C126        C550   1.481       .  S
C127        C541   1.478       .  S
O128        H164   0.990       .  S
O129        C131   1.295       .  A
O130        C131   1.279       .  A
C131        C558   1.487       .  S
O132       Zr133   2.439       .  S
O132        H161   0.990   1_545  S
Zr133       O136   2.436       .  S
Zr133       O137   2.440   1_545  S
Zr133       O138   2.441       .  S
O134        C139   1.285       .  A
O135        H152   0.990       .  S
O135        H167   0.990       .  S
O136        H153   0.990       .  S
O137        H166   0.990       .  S
O137        H733   0.990       .  S
O138        C139   1.284       .  A
C139        C562   1.484       .  S
O140        H159   0.990       .  S
O140        H163   0.990       .  S
O141        H155   0.990       .  S
O141        H162   0.990       .  S
O142        C146   1.274       .  A
O143        C146   1.285       .  A
O144        H154   0.990       .  S
O145        H158   0.990       .  S
C146        C570   1.471       .  S
H157        O713   0.990       .  S
C169        N170   1.360       .  A
C169        N174   1.360       .  A
C169        C538   1.464       .  S
N170        C171   1.354       .  A
C171        N172   1.370       .  A
C171        C177   1.496       .  S
N172        C173   1.372       .  A
C173        N174   1.356       .  A
C173        C229   1.486       .  S
C175        N176   1.355       .  A
C175        N180   1.361       .  A
C175       C1125   1.460       .  S
N176        C177   1.350       .  A
C177        N178   1.371       .  A
N178        C179   1.376       .  A
C179        N180   1.358       .  A
C179        C248   1.488       .  S
C181        N182   1.356       .  A
C181        N186   1.364       .  A
C181        C533   1.478       .  S
N182        C183   1.352       .  A
C183        N184   1.359       .  A
C183        C241   1.456       .  S
N184        C185   1.352       .  A
C185        N186   1.367       .  A
C185        C189   1.480       .  S
C187        N188   1.370       .  A
C187        N192   1.357       .  A
C187        C546   1.486       .  S
N188        C189   1.371       .  A
C189        N190   1.352       .  A
N190        C191   1.354       .  A
C191        N192   1.351       .  A
C191        C227   1.457       .  S
C193        N194   1.360       .  A
C193        N198   1.367       .  A
C193        C530   1.477       .  S
N194        C195   1.354       .  A
C195        N196   1.362       .  A
C195       C1355   1.492       .  S
N196        C197   1.369       .  A
C197        N198   1.364       .  A
C197        C228   1.480       .  S
C199        N200   1.368       .  A
C199        N204   1.360       .  A
C199        C542   1.473       .  S
N200       C1353   1.363       .  A
C201        N202   1.372       .  A
C201       N1352   1.360       .  A
C201       C1385   1.484       .  S
N202        C203   1.371       .  A
C203       N1356   1.355       .  A
C203       C1347   1.490       .  S
N204       C1355   1.353       .  A
Zr205       O206   2.436       .  S
Zr205       O207   2.386       .  S
Zr205       O208   2.513       .  S
Zr205       O211   2.529       .  S
Zr205       O213   2.380       .  S
Zr205       O214   2.388       .  S
Zr205       O215   2.411       .  S
Zr205       O216   2.408       .  S
O206        H262   0.990       .  S
O206        H270   0.991       .  S
O207        C227   1.277       .  A
O208        C229   1.302       .  A
O209       Zr219   2.365       .  S
O209        C228   1.272       .  A
O210       Zr794   2.396       .  S
O210        C229   1.276       .  A
O211        C228   1.303       .  A
O212       Zr220   2.447       .  S
O212        C227   1.286       .  A
O213       Zr220   2.364       .  S
O213       Zr794   2.377       .  S
O214       Zr219   2.385       .  S
O214       Zr220   2.363       .  S
O214        H249   0.965       .  S
O215       Zr794   2.404       .  S
O215       Zr811   2.407       .  S
O215        H252   0.965       .  S
O216       Zr219   2.398       .  S
O216       Zr811   2.400       .  S
Zr217       O242   2.436       .  S
Zr217       O236   2.366       .  S
Zr217       O244   2.542       .  S
Zr217       O232   2.526       .  S
Zr217      O1951   2.403   1_445  S
Zr217      O1376   2.423   1_455  S
Zr217      O1377   2.388   1_455  S
Zr217       O802   2.381       .  S
Zr218       O237   2.441       .  S
Zr218       O230   2.438       .  S
Zr218       O231   2.391       .  S
Zr218       O786   2.393   1_545  S
Zr218       O224   2.403       .  S
Zr218       O225   2.365       .  S
Zr218       O789   2.373   1_545  S
Zr218       O791   2.404   1_545  S
Zr219       O243   2.436       .  S
Zr219      O1373   2.436       .  S
Zr219      O1397   2.399       .  S
Zr219       O223   2.393       .  S
Zr219      O1378   2.362       .  S
Zr220       O246   2.435       .  S
Zr220       O247   2.433       .  S
Zr220       O222   2.437       .  S
Zr220       O223   2.409       .  S
Zr220       O800   2.401       .  S
O221      Zr1371   2.438   1_455  S
O221        H258   0.991       .  S
O222        H253   0.990       .  S
O222        H267   0.990       .  S
O223      Zr1945   2.400       .  S
O224      Zr1369   2.416       .  S
O224       Zr796   2.398   1_545  S
O224        H250   0.967       .  S
O225       Zr235   2.337       .  S
O225      Zr1369   2.377       .  S
O226       Zr793   2.390       .  S
O226      Zr1371   2.367   1_455  S
O226      Zr1963   2.366   1_455  S
O226        H827   0.966       .  S
O230        H842   0.990       .  S
O231        C233   1.266       .  A
O232       C1385   1.297   1_455  A
C233       C1353   1.491       .  S
C233       O1384   1.296       .  A
O234       Zr811   2.434       .  S
O234        H839   0.990       .  S
Zr235       O238   2.437       .  S
Zr235       O810   2.438   1_545  S
Zr235      O1967   2.439       .  S
Zr235      O1392   2.456       .  S
Zr235       O791   2.418   1_545  S
Zr235       O792   2.392   1_545  S
Zr235      O1954   2.370       .  S
O236        C241   1.273       .  A
O237        H254   0.990       .  S
O237        H269   0.990       .  S
O238       H1407   0.990       .  S
O239      Zr1963   2.436   1_455  S
O239        H268   0.990       .  S
O239        H835   0.990       .  S
O240      Zr1387   2.461   1_455  S
O240        C241   1.290       .  A
O242        H261   0.990       .  S
O242        H265   0.990       .  S
O243        H264   0.990       .  S
O243       H1409   0.990       .  S
O244        C824   1.308   1_545  A
O245      Zr1371   2.388   1_455  S
O245        C248   1.273       .  A
O246        H256   0.990       .  S
O247        H260   0.990       .  S
C248        O820   1.304       .  A
H251        O802   0.966       .  S
H255       O1390   0.990       .  S
H257       O1395   0.990       .  S
H259        O815   0.990       .  S
H263        O810   0.991   1_545  S
H266        O806   0.990       .  S
C271        N272   1.359       .  A
C271        N276   1.372       .  A
C271        C526   1.481       .  S
N272        C273   1.350       .  A
C273        N274   1.363       .  A
C273        C330   1.462       .  S
N274        C275   1.355       .  A
C275        N276   1.372       .  A
C275        C281   1.495       .  S
C277        N278   1.359       .  A
C277        N282   1.372       .  A
C277        C522   1.490       .  S
N278        C279   1.351       .  A
C279        N280   1.361       .  A
C279        C911   1.459       .  S
N280        C281   1.354       .  A
C281        N282   1.373       .  A
C283        N284   1.362       .  A
C283        N288   1.367       .  A
C283        C518   1.482       .  S
N284        C285   1.358       .  A
C285        N286   1.370       .  A
C285        C907   1.491       .  S
N286        C287   1.368       .  A
C287        N288   1.361       .  A
C287        C293   1.501       .  S
C289        N290   1.360       .  A
C289       N1446   1.362       .  A
C289        C513   1.472       .  S
N290        C291   1.357       .  A
C291        N292   1.374       .  A
C291        C350   1.483       .  S
N292       C1445   1.369       .  A
C293        N294   1.356       .  A
C293       N1444   1.369   1_455  A
N294       C1441   1.359   1_455  A
C295        N296   1.362       .  A
C295        N300   1.357       .  A
C295        C509   1.468       .  S
N296        C297   1.359       .  A
C297        N298   1.364       .  A
C297        C329   1.476       .  S
N298        C299   1.358       .  A
C299        N300   1.357       .  A
C299       C1455   1.478       .  S
C301        N302   1.366       .  A
C301        N306   1.356       .  A
C301        C505   1.471       .  S
N302        C303   1.362       .  A
C303        N304   1.357       .  A
C303       C1451   1.481       .  S
N304        C305   1.358       .  A
C305        N306   1.352       .  A
C305        C343   1.462       .  S
Zr307       O308   2.435       .  S
Zr307       O309   2.398       .  S
Zr307       O310   2.515       .  S
Zr307       O313   2.520       .  S
Zr307       O315   2.389       .  S
Zr307       O316   2.388       .  S
Zr307       O317   2.414       .  S
Zr307       O318   2.411       .  S
O308        H364   0.990       .  S
O308        H372   0.990       .  S
O309        C329   1.279       .  A
O310        C331   1.300       .  A
O311       Zr321   2.338       .  S
O311        C330   1.267       .  A
O312       Zr320   2.401       .  S
O312        C331   1.276       .  A
O313        C330   1.301       .  A
O314       Zr322   2.473       .  S
O314        C329   1.292       .  A
O315       Zr320   2.376       .  S
O315       Zr322   2.363       .  S
O316       Zr321   2.393       .  S
O316       Zr322   2.357       .  S
O316        H351   0.963       .  S
O317       Zr320   2.401       .  S
O317       Zr337   2.400       .  S
O317        H354   0.965       .  S
O318       Zr321   2.392       .  S
O318       Zr337   2.406       .  S
Zr319       O344   2.438       .  S
Zr319       O338   2.392       .  S
Zr319       O346   2.518       .  S
Zr319       O334   2.469       .  S
Zr319       O325   2.396       .  S
Zr319       O326   2.426       .  S
Zr319       O327   2.380       .  S
Zr319       O328   2.376       .  S
Zr320       O339   2.446   1_545  S
Zr320       O332   2.436       .  S
Zr320       O333   2.400       .  S
Zr320       O326   2.395       .  S
Zr320       O327   2.370       .  S
Zr321       O323   2.436       .  S
Zr321       O345   2.437       .  S
Zr321       O347   2.385       .  S
Zr321       O325   2.387       .  S
Zr321       O328   2.360       .  S
Zr322       O348   2.436       .  S
Zr322       O349   2.436       .  S
Zr322       O324   2.440       .  S
Zr322       O325   2.421       .  S
Zr322       O326   2.410       .  S
O323        H360   0.990       .  S
O324        H355   0.990       .  S
O324        H369   0.990       .  S
O326        H352   0.966       .  S
O327       Zr337   2.350       .  S
O328       Zr337   2.365       .  S
O328        H353   0.966       .  S
C331        C861   1.489   1_545  S
O332        H368   0.990   1_545  S
O333        C335   1.278       .  A
O334        C335   1.291       .  A
C335        C855   1.463   1_545  S
O336       Zr337   2.434       .  S
O336        H365   0.990       .  S
Zr337       O340   2.437       .  S
Zr337       O341   2.437       .  S
Zr337       O342   2.457       .  S
O338        C343   1.278       .  A
O339        H371   0.990       .  S
O339        H932   0.990       .  S
O340        H357   0.990       .  S
O341        H361   0.990       .  S
O341        H370   0.989       .  S
O342        C343   1.290       .  A
O344        H363   0.990       .  S
O344        H367   0.990       .  S
O345        H359   0.990       .  S
O345        H366   0.990       .  S
O346        C350   1.302       .  A
O347        C350   1.273       .  A
O348        H358   0.990       .  S
O349        H362   0.990       .  S
H356        O915   0.990       .  S
Zr373      O1526   2.442       .  S
Zr373       O375   2.445       .  S
Zr373       O376   2.405       .  S
Zr373      O2107   2.398       .  S
Zr373       O381   2.372       .  S
Zr373       O383   2.405       .  S
Zr373       O958   2.380       .  S
Zr373      O2112   2.404       .  S
O374      Zr1525   2.441   1_455  S
O374        H430   0.990       .  S
O374        H438   0.990       .  S
O375        C395   1.284       .  A
O376        C397   1.280       .  A
O377      Zr1539   2.444   1_455  S
O377        C396   1.286       .  A
O378       Zr386   2.456       .  S
O378        C397   1.287       .  A
O379      Zr2101   2.402   1_445  S
O379        C396   1.281       .  A
O380       Zr388   2.443       .  S
O380        C395   1.285       .  A
O381       Zr386   2.401       .  S
O381       Zr388   2.371       .  S
O382       Zr387   2.399   1_565  S
O382       Zr949   2.378       .  S
O382       Zr964   2.376       .  S
O382        H417   0.965   1_565  S
O383       Zr386   2.406       .  S
O383      Zr1555   2.394       .  S
O383       H1572   0.964       .  S
O384      Zr2101   2.398   1_445  S
O384      Zr1539   2.396   1_455  S
O384       Zr979   2.390       .  S
Zr385       O410   2.441       .  S
Zr385       O404   2.444       .  S
Zr385       O400   2.401       .  S
Zr385       O988   2.392       .  S
Zr385       O392   2.405   1_554  S
Zr385       O393   2.372       .  S
Zr385       O967   2.399   1_554  S
Zr385      O2122   2.376       .  S
Zr386       O405   2.435       .  S
Zr386       O398   2.435       .  S
Zr386       O399   2.458   1_556  S
Zr386       O392   2.401       .  S
Zr386       O393   2.392   1_556  S
Zr387       O411   2.435       .  S
Zr387      O1541   2.436       .  S
Zr387       O413   2.472   1_556  S
Zr387      O1529   2.458       .  S
Zr387       O391   2.398   1_545  S
Zr387      O1536   2.394       .  S
Zr387      O1546   2.389   1_556  S
Zr388       O415   2.434       .  S
Zr388       O390   2.438       .  S
Zr388       O990   2.436       .  S
Zr388       O392   2.404       .  S
Zr388       O958   2.371       .  S
Zr388       O967   2.408       .  S
O389      Zr1539   2.435   1_455  S
O389        H426   0.990       .  S
O390        H421   0.990       .  S
O390        H435   0.990       .  S
O391       Zr961   2.395   1_556  S
O391       Zr964   2.406       .  S
O392        H418   0.967   1_556  S
O393      Zr1555   2.376   1_554  S
O394      Zr2113   2.373   1_445  S
O394      Zr1539   2.390   1_454  S
O394       Zr979   2.379   1_554  S
O394        H419   0.966       .  S
C395        C521   1.485       .  S
C396        C510   1.467       .  S
C397        C514   1.477       .  S
O398        H434   0.990       .  S
O399        C401   1.287       .  A
O400        C401   1.278       .  A
C401        C554   1.473       .  S
O402       Zr403   2.436       .  S
O402        H431   0.990       .  S
Zr403       O406   2.435       .  S
Zr403       O983   2.438       .  S
Zr403       O408   2.429   1_556  S
Zr403      O1535   2.396       .  S
Zr403       O960   2.392       .  S
Zr403      O1545   2.379   1_556  S
Zr403       O970   2.375   1_556  S
O404       C1561   1.284       .  A
O405        H422   0.990       .  S
O405        H437   0.990       .  S
O406        H423   0.990       .  S
O407       Zr979   2.437       .  S
O407        H427   0.990   1_556  S
O407        H436   0.990       .  S
O408        C409   1.283       .  A
C409        C574   1.473       .  S
C409       O1556   1.284       .  A
O410        H429   0.990       .  S
O410        H433   0.991       .  S
O411        H425   0.990       .  S
O411        H432   0.990       .  S
O412       Zr961   2.394   1_545  S
O412        C416   1.279       .  A
O413        C416   1.290       .  A
O414       Zr964   2.435       .  S
O414       H1000   0.990       .  S
O415        H428   0.990   1_556  S
C416        C565   1.484       .  S
H420       O1535   0.964       .  S
H424        O990   0.990       .  S
Zr439       O440   2.441       .  S
Zr439       O441   2.421       .  S
Zr439       O442   2.395       .  S
Zr439       O445   2.374       .  S
Zr439       O447   2.370       .  S
Zr439       O448   2.376       .  S
Zr439       O449   2.395       .  S
Zr439       O450   2.391       .  S
O440        H496   0.990       .  S
O440        H504   0.990       .  S
O441        C461   1.282       .  A
O442        C463   1.276       .  A
O443       Zr453   2.462   1_655  S
O443        C462   1.288   1_655  A
O444       Zr452   2.483       .  S
O444        C463   1.293       .  A
O445        C462   1.276       .  A
O446       Zr454   2.455       .  S
O446        C461   1.288       .  A
O447       Zr452   2.390       .  S
O447       Zr454   2.373       .  S
O448       Zr453   2.385       .  S
O448       Zr454   2.377       .  S
O448        H483   0.966       .  S
O449       Zr452   2.396       .  S
O449       Zr469   2.406       .  S
O449        H486   0.966       .  S
O450       Zr453   2.394       .  S
O450       Zr469   2.393       .  S
Zr451       O476   2.443       .  S
Zr451       O470   2.437       .  S
Zr451       O478   2.416       .  S
Zr451       O466   2.378       .  S
Zr451       O457   2.398       .  S
Zr451       O458   2.408       .  S
Zr451       O459   2.374       .  S
Zr451       O460   2.374       .  S
Zr452       O471   2.437       .  S
Zr452       O464   2.436       .  S
Zr452       O465   2.461       .  S
Zr452       O458   2.407       .  S
Zr452       O459   2.399       .  S
Zr453       O455   2.436   1_455  S
Zr453      O1629   2.437   1_455  S
Zr453       O479   2.451   1_455  S
Zr453       O457   2.395       .  S
Zr453       O460   2.397       .  S
Zr454       O480   2.435   1_455  S
Zr454       O481   2.437       .  S
Zr454       O456   2.435       .  S
Zr454       O457   2.405       .  S
Zr454       O458   2.405       .  S
O455       H1644   0.990       .  S
O456        H487   0.990       .  S
O456        H501   0.990       .  S
O458        H484   0.966       .  S
O459       Zr469   2.365       .  S
O460       Zr469   2.380       .  S
O460        H485   0.966       .  S
C461        C517   1.480       .  S
C462        C506   1.471   1_455  S
C463        C525   1.477       .  S
O464        H500   0.990       .  S
O465        C467   1.289       .  A
O466        C467   1.277       .  A
C467        C537   1.474       .  S
O468       Zr469   2.435       .  S
O468        H497   0.990       .  S
Zr469       O472   2.436       .  S
Zr469       O473   2.439       .  S
Zr469       O474   2.429       .  S
O470        C475   1.284       .  A
O471        H488   0.990       .  S
O471        H503   0.990       .  S
O472        H489   0.990       .  S
O473        H493   0.990       .  S
O473        H502   0.989       .  S
O474        C475   1.282       .  A
C475        C534   1.475       .  S
O476        H495   0.990       .  S
O476        H499   0.990       .  S
O477      Zr1605   2.437       .  S
O477        H491   0.990       .  S
O477       H1650   0.990       .  S
O478        C482   1.282   1_455  A
O479        C482   1.286       .  A
O480        H490   0.989       .  S
O481        H494   0.990       .  S
C482       C1681   1.477       .  S
H492       O1607   0.990       .  S
H498       O1629   0.990       .  S
C505       C1658   1.353       .  D
C505       H1659   1.087       .  S
C506       C1657   1.351   1_655  D
C506       H1660   1.086       .  S
H507       C1657   1.087       .  S
H508       C1658   1.086       .  S
C509        C510   1.341       .  D
C509        H511   1.088   1_455  S
C510        H512   1.086       .  S
C513        C514   1.350       .  D
C513        H515   1.088       .  S
C514        H516   1.086       .  S
C517        C518   1.344       .  D
C517        H519   1.087       .  S
C518        H520   1.086       .  S
C521        C522   1.353       .  D
C521        H523   1.087       .  S
C522        H524   1.086       .  S
C525        C526   1.340       .  D
C525        H527   1.087       .  S
C526        H528   1.089       .  S
C529       C1634   1.479       .  S
C529        C530   1.343       .  D
C529       H1683   1.086       .  S
C530        H532   1.088       .  S
H531       C1681   1.086       .  S
C533        C534   1.345       .  D
C533        H535   1.086       .  S
C534        H536   1.088       .  S
C537        C538   1.349       .  D
C537        H539   1.086       .  S
C538        H540   1.088       .  S
C541        C542   1.343       .  D
C541        H543   1.086       .  S
C542        H544   1.088       .  S
C545        C546   1.352       .  D
C545        H547   1.087       .  S
C546        H548   1.086       .  S
C549        C751   1.472       .  S
C549        C550   1.348       .  D
C549       H1127   1.087       .  S
C550        H552   1.086       .  S
H551       C1125   1.088       .  S
C553        C554   1.347       .  D
C553        H555   1.087       .  S
C554        H556   1.086       .  S
C557        C558   1.355       .  D
C557        H559   1.087       .  S
C558        H560   1.086       .  S
C561        C562   1.349       .  D
C561        H563   1.087       .  S
C562        H564   1.086   1_545  S
C565        C566   1.352       .  D
C565        H567   1.086       .  S
C566        H568   1.087       .  S
C569        C570   1.343       .  D
C569        H571   1.087       .  S
C570        H572   1.086       .  S
C573        C574   1.346       .  D
C573        H575   1.086       .  S
C574       H1152   1.088       .  S
H576       C1150   1.088       .  S
C577        N578   1.364   1_545  A
C577       C1149   1.477       .  S
N578        C579   1.352       .  A
C579        N580   1.356       .  A
C579        C656   1.465       .  S
C581        N582   1.366       .  A
C581        C585   1.486       .  S
C583        N584   1.361       .  A
C583        N588   1.362       .  A
C583       C1145   1.470       .  S
N584        C585   1.361       .  A
C585        N586   1.357       .  A
N586        C587   1.367       .  A
C587        N588   1.357       .  A
C587        C637   1.475       .  S
C589        N590   1.361       .  A
C589        N594   1.365       .  A
C589       C1142   1.482       .  S
N590        C591   1.359       .  A
C591        N592   1.370       .  A
C591       C1793   1.481       .  S
N592        C593   1.368       .  A
C593        N594   1.360       .  A
C593        C599   1.501       .  S
C595        N600   1.362       .  A
C595       C1137   1.481       .  S
N596        C597   1.359       .  A
C597        N598   1.371       .  A
C597        C636   1.486       .  S
C599        N600   1.359       .  A
C601        N602   1.367       .  A
C601        N606   1.357       .  A
C601       C1133   1.474       .  S
N602        C603   1.362       .  A
C603        N604   1.356       .  A
C603        C609   1.484       .  S
N604       C1757   1.360       .  A
C605       N1756   1.361   1_455  A
C605       N1758   1.356   1_455  A
C605        C649   1.465       .  S
N606       C1757   1.354       .  A
C607        N608   1.360       .  A
C607        N612   1.362       .  A
C607       C1129   1.473       .  S
N608        C609   1.360       .  A
C609        N610   1.359       .  A
N610        C611   1.366       .  A
C611        N612   1.359       .  A
C611        C635   1.478       .  S
Zr613       O614   2.437       .  S
Zr613       O615   2.399       .  S
Zr613       O616   2.506       .  S
Zr613       O619   2.534       .  S
Zr613       O621   2.387       .  S
Zr613       O622   2.387       .  S
Zr613       O623   2.438       .  S
Zr613       O624   2.407       .  S
O614        H670   0.990       .  S
O614        H678   0.990       .  S
O615        C635   1.279       .  A
O616        C637   1.291       .  A
O617       Zr627   2.380       .  S
O617        C636   1.273       .  A
O618       Zr626   2.380       .  S
O618        C637   1.264       .  A
O619        C636   1.304       .  A
O620       Zr628   2.478       .  S
O620        C635   1.293       .  A
O621       Zr626   2.383       .  S
O621       Zr628   2.337       .  S
O622       Zr627   2.378       .  S
O622       Zr628   2.369       .  S
O622        H657   0.966       .  S
O623       Zr626   2.412       .  S
O623       Zr643   2.399       .  S
O623        H660   0.966       .  S
O624       Zr627   2.402       .  S
O624       Zr643   2.415       .  S
Zr625       O650   2.435       .  S
Zr625       O644   2.390       .  S
Zr625       O652   2.477       .  S
Zr625       O640   2.483       .  S
Zr625       O631   2.411       .  S
Zr625       O632   2.409       .  S
Zr625       O633   2.375       .  S
Zr625       O634   2.383       .  S
Zr626       O645   2.438       .  S
Zr626       O638   2.438       .  S
Zr626       O639   2.413       .  S
Zr626       O632   2.394       .  S
Zr626       O633   2.365       .  S
Zr627       O629   2.437       .  S
Zr627       O651   2.435       .  S
Zr627       O653   2.386       .  S
Zr627       O631   2.385       .  S
Zr627       O634   2.379       .  S
Zr628       O654   2.436       .  S
Zr628       O655   2.434       .  S
Zr628       O630   2.437       .  S
Zr628       O631   2.411       .  S
Zr628       O632   2.424       .  S
O629        H666   0.990       .  S
O630        H661   0.990       .  S
O630        H675   0.990       .  S
O632        H658   0.966       .  S
O633       Zr643   2.363       .  S
O634       Zr643   2.356       .  S
O634        H659   0.965       .  S
O638        H674   0.990       .  S
O639        C641   1.279       .  A
O640        C641   1.294       .  A
C641       C1743   1.478       .  S
O642       Zr643   2.435       .  S
O642        H671   0.990       .  S
Zr643       O646   2.436       .  S
Zr643       O647   2.438       .  S
Zr643       O648   2.457       .  S
O644        C649   1.278       .  A
O645        H662   0.990       .  S
O645        H677   0.990       .  S
O646        H663   0.990       .  S
O647        H667   0.990       .  S
O647        H676   0.990       .  S
O648        C649   1.289       .  A
O650        H669   0.990       .  S
O650        H673   0.990       .  S
O651        H665   0.990       .  S
O651        H672   0.990       .  S
O652        C656   1.293       .  A
O653        C656   1.277       .  A
O654        H664   0.990       .  S
O655        H668   0.990       .  S
Zr679       O680   2.443       .  S
Zr679       O681   2.433       .  S
Zr679       O682   2.425       .  S
Zr679       O685   2.393       .  S
Zr679       O687   2.377       .  S
Zr679       O688   2.385       .  S
Zr679       O689   2.398       .  S
Zr679       O690   2.396       .  S
O680        H736   0.990       .  S
O680        H744   0.990       .  S
O681        C701   1.283       .  A
O682        C703   1.283       .  A
O683       Zr693   2.446       .  S
O683        C702   1.282       .  A
O684       Zr692   2.463       .  S
O684        C703   1.289       .  A
O685        C702   1.278       .  A
O686       Zr694   2.448       .  S
O686        C701   1.286       .  A
O687       Zr692   2.404       .  S
O687       Zr694   2.374       .  S
O688       Zr693   2.399       .  S
O688       Zr694   2.362       .  S
O688        H723   0.966       .  S
O689       Zr692   2.405       .  S
O689       Zr709   2.389       .  S
O689        H726   0.967       .  S
O690       Zr693   2.403       .  S
O690       Zr709   2.395       .  S
Zr691       O716   2.442       .  S
Zr691       O710   2.438       .  S
Zr691       O718   2.405       .  S
Zr691       O706   2.375       .  S
Zr691       O697   2.401       .  S
Zr691       O698   2.407       .  S
Zr691       O699   2.369       .  S
Zr691       O700   2.372       .  S
Zr692       O711   2.435       .  S
Zr692       O704   2.435       .  S
Zr692       O705   2.485       .  S
Zr692       O698   2.394       .  S
Zr692       O699   2.397       .  S
Zr693       O695   2.435       .  S
Zr693       O717   2.439       .  S
Zr693       O719   2.460       .  S
Zr693       O697   2.387       .  S
Zr693       O700   2.395       .  S
Zr694       O720   2.435       .  S
Zr694       O721   2.435       .  S
Zr694       O696   2.437       .  S
Zr694       O697   2.405       .  S
Zr694       O698   2.394       .  S
O695        H732   0.990       .  S
O696        H727   0.990       .  S
O696        H741   0.990       .  S
O698        H724   0.965       .  S
O699       Zr709   2.379       .  S
O700       Zr709   2.385       .  S
O700        H725   0.966       .  S
C701       C1121   1.480       .  S
C702       C1126   1.471       .  S
C703       C1117   1.484       .  S
O704        H740   0.990       .  S
O705        C707   1.294       .  A
O706        C707   1.276       .  A
C707       C1134   1.480       .  S
O708       Zr709   2.437       .  S
O708        H737   0.990       .  S
Zr709       O712   2.437       .  S
Zr709       O713   2.435       .  S
Zr709       O714   2.431       .  S
O710        C715   1.285       .  A
O711        H728   0.990       .  S
O711        H743   0.990       .  S
O712        H729   0.990       .  S
O713        H742   0.990       .  S
O714        C715   1.282       .  A
C715       C1138   1.481       .  S
O716        H735   0.991       .  S
O716        H739   0.990       .  S
O717        H731   0.990       .  S
O717        H738   0.990       .  S
O718        C722   1.275       .  A
O719        C722   1.286       .  A
O720        H730   0.990       .  S
O721        H734   0.990       .  S
C722       C1146   1.477       .  S
C745        N746   1.361       .  A
C745        N750   1.361       .  A
C745       C1114   1.465       .  S
N746        C747   1.355       .  A
C747        N748   1.374       .  A
C747        C753   1.508       .  S
N748        C749   1.378       .  A
C749        N750   1.356       .  A
C749        C805   1.495       .  S
C751        N752   1.361   1_545  A
C751        N756   1.364       .  A
N752        C753   1.355       .  A
C753        N754   1.373       .  A
N754        C755   1.378       .  A
C755        N756   1.359   1_565  A
C755        C824   1.500       .  S
C757        N758   1.355       .  A
C757        N762   1.364       .  A
C757       C1109   1.476       .  S
N758        C759   1.348       .  A
C759        N760   1.359       .  A
C759        C817   1.451       .  S
N760        C761   1.351       .  A
C761        N762   1.368       .  A
C761        C765   1.477       .  S
C763        N764   1.370       .  A
C763        N768   1.355       .  A
C763       C1122   1.486       .  S
N764        C765   1.371       .  A
C765        N766   1.350       .  A
N766        C767   1.351       .  A
C767        N768   1.350       .  A
C767        C803   1.448       .  S
C769        N770   1.362       .  A
C769        N774   1.366       .  A
C769       C1106   1.474       .  S
N770        C771   1.359       .  A
C771        N772   1.367       .  A
C771       C1931   1.499       .  S
N772        C773   1.370       .  A
C773        N774   1.365       .  A
C773        C804   1.489       .  S
C775        N776   1.368       .  A
C775        N780   1.364       .  A
C775       C1118   1.482       .  S
N776       C1929   1.363       .  A
C777       N1928   1.362       .  A
C777        N778   1.373       .  A
C777       C1961   1.486       .  S
N778        C779   1.364       .  A
C779       N1932   1.360       .  A
C779       C1923   1.503       .  S
N780       C1931   1.358       .  A
Zr781       O782   2.435       .  S
Zr781       O783   2.387       .  S
Zr781       O784   2.531       .  S
Zr781       O787   2.523       .  S
Zr781       O789   2.375       .  S
Zr781       O790   2.402       .  S
Zr781       O791   2.411       .  S
Zr781       O792   2.411       .  S
O782        H838   0.990       .  S
O782        H846   0.990       .  S
O783        C803   1.277       .  A
O784        C805   1.305       .  A
O785       Zr795   2.386       .  S
O785        C804   1.267       .  A
O786        C805   1.273       .  A
O787        C804   1.297       .  A
O788       Zr796   2.427       .  S
O788        C803   1.283       .  A
O789       Zr796   2.367       .  S
O790       Zr795   2.384       .  S
O790       Zr796   2.376       .  S
O790        H825   0.965       .  S
O791        H828   0.964       .  S
O792       Zr795   2.403       .  S
Zr793       O818   2.434       .  S
Zr793       O812   2.357       .  S
Zr793       O820   2.528       .  S
Zr793       O808   2.530       .  S
Zr793      O1375   2.397   1_455  S
Zr793      O1952   2.416   1_455  S
Zr793      O1953   2.376   1_455  S
Zr794       O813   2.439       .  S
Zr794       O806   2.438       .  S
Zr794       O807   2.397       .  S
Zr794       O800   2.403       .  S
Zr794       O801   2.374       .  S
Zr795      O1949   2.442       .  S
Zr795       O819   2.438       .  S
Zr795      O1973   2.389       .  S
Zr795       O799   2.391       .  S
Zr795      O1954   2.384   1_565  S
Zr796       O822   2.438       .  S
Zr796       O823   2.434       .  S
Zr796       O798   2.437       .  S
Zr796       O799   2.406       .  S
O797      Zr1947   2.435   1_455  S
O797        H834   0.990       .  S
O798        H829   0.990       .  S
O798        H843   0.990       .  S
O799      Zr1369   2.399   1_565  S
O800      Zr1945   2.420       .  S
O800        H826   0.965       .  S
O801      Zr1945   2.385       .  S
O801       Zr811   2.349       .  S
O802      Zr1947   2.370   1_445  S
O802      Zr1387   2.366   1_455  S
O807        C809   1.270       .  A
O808       C1961   1.297   1_455  A
C809       C1929   1.493       .  S
C809       O1960   1.299       .  A
Zr811       O814   2.439       .  S
Zr811      O1391   2.437       .  S
Zr811      O1968   2.443       .  S
Zr811      O1378   2.367       .  S
O812        C817   1.272       .  A
O813        H830   0.990       .  S
O813        H845   0.990       .  S
O814       H1983   0.990       .  S
O815      Zr1387   2.437   1_455  S
O815        H844   0.990   1_545  S
O816      Zr1963   2.465   1_455  S
O816        C817   1.292       .  A
O818        H837   0.990       .  S
O818        H841   0.990       .  S
O819       H1985   0.990       .  S
O819        H840   0.989       .  S
O821      Zr1947   2.391   1_455  S
O821        C824   1.275       .  A
O822        H832   0.990       .  S
O823        H836   0.990       .  S
H831       O1966   0.990       .  S
H833       O1971   0.990       .  S
C847        N848   1.354       .  A
C847        N852   1.357       .  A
C847       C1102   1.462       .  S
N848        C849   1.351       .  A
C849        N850   1.368       .  A
C849        C906   1.463       .  S
N850        C851   1.363       .  A
C851        N852   1.363       .  A
C851        C857   1.487       .  S
C853        N854   1.362       .  A
C853        N858   1.372       .  A
C853       C1098   1.482       .  S
N854        C855   1.350       .  A
C855        N856   1.354       .  A
N856        C857   1.354       .  A
C857        N858   1.368       .  A
C859        N860   1.366       .  A
C859        N864   1.369       .  A
C859       C1094   1.492       .  S
N860        C861   1.361       .  A
C861        N862   1.367       .  A
N862        C863   1.364       .  A
C863        N864   1.362       .  A
C863        C869   1.500       .  S
C865        N866   1.359       .  A
C865       N2022   1.366       .  A
C865       C1089   1.474       .  S
N866        C867   1.354       .  A
C867        N868   1.367       .  A
C867        C926   1.477       .  S
N868       C2021   1.366       .  A
C869       N2020   1.367   1_455  A
C869        N870   1.359       .  A
N870       C2017   1.362   1_455  A
C871        N872   1.360       .  A
C871        N876   1.360       .  A
C871       C1085   1.472       .  S
N872        C873   1.357       .  A
C873        N874   1.361       .  A
C873        C905   1.468       .  S
N874        C875   1.356       .  A
C875        N876   1.359       .  A
C875       C2031   1.476   1_455  S
C877        N878   1.365       .  A
C877        N882   1.355       .  A
C877       C1081   1.472       .  S
N878        C879   1.362       .  A
C879        N880   1.359       .  A
C879       C2027   1.482       .  S
N880        C881   1.359       .  A
C881        N882   1.351       .  A
C881        C919   1.464       .  S
Zr883       O884   2.435       .  S
Zr883       O885   2.395       .  S
Zr883       O886   2.520       .  S
Zr883       O889   2.471       .  S
Zr883       O891   2.376       .  S
Zr883       O892   2.411       .  S
Zr883       O893   2.403       .  S
Zr883       O894   2.421       .  S
O884        H940   0.990       .  S
O884        H948   0.990       .  S
O885        C905   1.279       .  A
O886        C907   1.301       .  A
O887       Zr897   2.379       .  S
O887        C906   1.266       .  A
O888       Zr896   2.397       .  S
O888        C907   1.275       .  A
O889        C906   1.288       .  A
O890       Zr898   2.460       .  S
O890        C905   1.290       .  A
O891       Zr896   2.366       .  S
O891       Zr898   2.364       .  S
O892       Zr897   2.390       .  S
O892       Zr898   2.364       .  S
O892        H927   0.966       .  S
O893       Zr896   2.398       .  S
O893       Zr913   2.407       .  S
O893        H930   0.966       .  S
O894       Zr897   2.401       .  S
O894       Zr913   2.396       .  S
Zr895       O920   2.435       .  S
Zr895       O914   2.395       .  S
Zr895       O922   2.488       .  S
Zr895       O910   2.476       .  S
Zr895       O901   2.404       .  S
Zr895       O902   2.421       .  S
Zr895       O903   2.370       .  S
Zr895       O904   2.383       .  S
Zr896       O915   2.438       .  S
Zr896       O908   2.435       .  S
Zr896       O909   2.379       .  S
Zr896       O902   2.392       .  S
Zr896       O903   2.371       .  S
Zr897       O899   2.439       .  S
Zr897       O921   2.439       .  S
Zr897       O923   2.406       .  S
Zr897       O901   2.384       .  S
Zr897       O904   2.369       .  S
Zr898       O924   2.436       .  S
Zr898       O925   2.436       .  S
Zr898       O900   2.436       .  S
Zr898       O901   2.415       .  S
Zr898       O902   2.408       .  S
O899        H936   0.990       .  S
O900        H931   0.990       .  S
O900        H945   0.990       .  S
O902        H928   0.965       .  S
O903       Zr913   2.345       .  S
O904       Zr913   2.369       .  S
O904        H929   0.966       .  S
O908        H944   0.990       .  S
O909        C911   1.275       .  A
O910        C911   1.294       .  A
O912       Zr913   2.439       .  S
O912        H941   0.990       .  S
Zr913       O916   2.438       .  S
Zr913       O917   2.439       .  S
Zr913       O918   2.457       .  S
O914        C919   1.279       .  A
O915        H947   0.990       .  S
O916        H933   0.990       .  S
O917        H937   0.990       .  S
O917        H946   0.990       .  S
O918        C919   1.290       .  A
O920        H939   0.990       .  S
O920        H943   0.990       .  S
O921        H935   0.990       .  S
O921        H942   0.989       .  S
O922        C926   1.296       .  A
O923        C926   1.278       .  A
O924        H934   0.991       .  S
O925        H938   0.990       .  S
Zr949      O2102   2.443       .  S
Zr949       O951   2.435       .  S
Zr949       O952   2.398       .  S
Zr949      O1531   2.395   1_565  S
Zr949       O957   2.377       .  S
Zr949       O959   2.400       .  S
Zr949      O1536   2.396   1_565  S
O950      Zr2101   2.440   1_445  S
O950       H1006   0.990   1_545  S
O950       H1014   0.990   1_545  S
O951        C971   1.282       .  A
O952        C973   1.278       .  A
O953      Zr2115   2.454       .  S
O953        C972   1.288       .  A
O954       Zr962   2.464       .  S
O954        C973   1.289       .  A
O955      Zr1525   2.400   1_455  S
O955        C972   1.281       .  A
O956       Zr964   2.436       .  S
O956        C971   1.283       .  A
O957       Zr962   2.407       .  S
O957       Zr964   2.380       .  S
O958       Zr963   2.402       .  S
O958        H993   0.965       .  S
O959       Zr962   2.404       .  S
O959      Zr2131   2.384       .  S
O959       H2148   0.964       .  S
O960      Zr1525   2.400   1_455  S
O960      Zr2115   2.400       .  S
Zr961       O986   2.445       .  S
Zr961       O980   2.431       .  S
Zr961       O976   2.399       .  S
Zr961       O968   2.399   1_554  S
Zr961       O969   2.373       .  S
Zr961      O1546   2.376   1_565  S
Zr962       O981   2.437       .  S
Zr962       O974   2.434       .  S
Zr962       O975   2.465   1_556  S
Zr962       O968   2.401       .  S
Zr962       O969   2.391   1_556  S
Zr963      O2117   2.436       .  S
Zr963       O987   2.435       .  S
Zr963      O2105   2.457       .  S
Zr963       O989   2.482   1_556  S
Zr963      O2112   2.400       .  S
Zr963       O967   2.392       .  S
Zr963      O2122   2.389   1_556  S
Zr964       O991   2.438       .  S
Zr964       O966   2.439       .  S
Zr964       O968   2.401       .  S
O965      Zr2115   2.436       .  S
O965       H1002   0.990       .  S
O966        H997   0.990       .  S
O966       H1011   0.989       .  S
O968        H994   0.967   1_556  S
O969      Zr2131   2.372   1_554  S
O970      Zr1537   2.376   1_455  S
O970      Zr2115   2.389   1_554  S
O970        H995   0.966       .  S
C971       C1097   1.477       .  S
C972       C1086   1.469       .  S
C973       C1090   1.476       .  S
O974       H1010   0.990       .  S
O975        C977   1.290       .  A
O976        C977   1.279       .  A
C977       C1130   1.474       .  S
O978       Zr979   2.436       .  S
O978       H1007   0.990       .  S
Zr979       O982   2.436   1_545  S
Zr979       O984   2.420   1_546  S
Zr979      O2111   2.390   1_545  S
Zr979      O2121   2.376   1_546  S
O980       C2137   1.283       .  A
O981        H998   0.990       .  S
O981       H1013   0.990       .  S
O982        H999   0.990       .  S
O983       H1003   0.990   1_556  S
O983       H1012   0.990       .  S
O984        C985   1.280       .  A
C985       C1150   1.472       .  S
C985       O2132   1.284       .  A
O986       H1005   0.990       .  S
O986       H1009   0.990       .  S
O987       H1001   0.990       .  S
O987       H1008   0.990       .  S
O988        C992   1.278       .  A
O989        C992   1.293       .  A
O991       H1004   0.990   1_556  S
C992       C1141   1.488       .  S
H996       O2111   0.967       .  S
Zr1015     O1016   2.441       .  S
Zr1015     O1017   2.419       .  S
Zr1015     O1018   2.407       .  S
Zr1015     O1021   2.385       .  S
Zr1015     O1023   2.371       .  S
Zr1015     O1024   2.379       .  S
Zr1015     O1025   2.394       .  S
Zr1015     O1026   2.391       .  S
O1016      H1072   0.990       .  S
O1016      H1080   0.990       .  S
O1017      C1037   1.280       .  A
O1018      C1039   1.280       .  A
O1019     Zr1029   2.464   1_655  S
O1019      C1038   1.290   1_655  A
O1020     Zr1028   2.448       .  S
O1020      C1039   1.285       .  A
O1021      C1038   1.279       .  A
O1022     Zr1030   2.469       .  S
O1022      C1037   1.289       .  A
O1023     Zr1028   2.398       .  S
O1023     Zr1030   2.373       .  S
O1024     Zr1029   2.401       .  S
O1024     Zr1030   2.371       .  S
O1024      H1059   0.965       .  S
O1025     Zr1028   2.402       .  S
O1025     Zr1045   2.391       .  S
O1025      H1062   0.966       .  S
O1026     Zr1029   2.401       .  S
O1026     Zr1045   2.381       .  S
Zr1027     O1052   2.441       .  S
Zr1027     O1046   2.442       .  S
Zr1027     O1054   2.397       .  S
Zr1027     O1042   2.373       .  S
Zr1027     O1033   2.400       .  S
Zr1027     O1034   2.404       .  S
Zr1027     O1035   2.370       .  S
Zr1027     O1036   2.372       .  S
Zr1028     O1047   2.437       .  S
Zr1028     O1040   2.436       .  S
Zr1028     O1041   2.462       .  S
Zr1028     O1034   2.398       .  S
Zr1028     O1035   2.388       .  S
Zr1029     O1031   2.434   1_455  S
Zr1029     O2205   2.436   1_455  S
Zr1029     O1055   2.486   1_455  S
Zr1029     O1033   2.392       .  S
Zr1029     O1036   2.391       .  S
Zr1030     O1056   2.438   1_455  S
Zr1030     O1057   2.436       .  S
Zr1030     O1032   2.437       .  S
Zr1030     O1033   2.416       .  S
Zr1030     O1034   2.416       .  S
O1031      H2220   0.990       .  S
O1032      H1063   0.990       .  S
O1032      H1077   0.990       .  S
O1034      H1060   0.964       .  S
O1035     Zr1045   2.375       .  S
O1036     Zr1045   2.378       .  S
O1036      H1061   0.964       .  S
C1037      C1093   1.485       .  S
C1038      C1082   1.475   1_455  S
C1039      C1101   1.473       .  S
O1040      H1076   0.990       .  S
O1041      C1043   1.288       .  A
O1042      C1043   1.275       .  A
C1043      C1113   1.472       .  S
O1044     Zr1045   2.436       .  S
O1044      H1073   0.990       .  S
Zr1045     O1048   2.434       .  S
Zr1045     O1049   2.437       .  S
Zr1045     O1050   2.416       .  S
O1046      C1051   1.285       .  A
O1047      H1064   0.990       .  S
O1047      H1079   0.990       .  S
O1048      H1065   0.990       .  S
O1049      H1069   0.990       .  S
O1049      H1078   0.990       .  S
O1050      C1051   1.280       .  A
C1051      C1110   1.470       .  S
O1052      H1071   0.990       .  S
O1052      H1075   0.990       .  S
O1053     Zr2181   2.436       .  S
O1053      H1067   0.990       .  S
O1053      H2226   0.990       .  S
O1054      C1058   1.277   1_455  A
O1055      C1058   1.294       .  A
O1056      H1066   0.990       .  S
O1057      H1070   0.990       .  S
C1058      C2257   1.478       .  S
H1068      O2183   0.990       .  S
H1074      O2205   0.990       .  S
C1081      C2234   1.352       .  D
C1081      H2235   1.087       .  S
C1082      C2233   1.350   1_655  D
C1082      H2236   1.086       .  S
H1083      C2233   1.088       .  S
H1084      C2234   1.086       .  S
C1085      C1086   1.344       .  D
C1085      H1087   1.088   1_455  S
C1086      H1088   1.086       .  S
C1089      C1090   1.353       .  D
C1089      H1091   1.088       .  S
C1090      H1092   1.086       .  S
C1093      C1094   1.347       .  D
C1093      H1095   1.087       .  S
C1094      H1096   1.087       .  S
C1097      C1098   1.349       .  D
C1097      H1099   1.088       .  S
C1098      H1100   1.086       .  S
C1101      C1102   1.344       .  D
C1101      H1103   1.087       .  S
C1102      H1104   1.086       .  S
C1105      C2210   1.489       .  S
C1105      C1106   1.351       .  D
C1105      H2259   1.088       .  S
C1106      H1108   1.087       .  S
H1107      C2257   1.087       .  S
C1109      C1110   1.345       .  D
C1109      H1111   1.086       .  S
C1110      H1112   1.088       .  S
C1113      C1114   1.348       .  D
C1113      H1115   1.086       .  S
C1114      H1116   1.088       .  S
C1117      C1118   1.347       .  D
C1117      H1119   1.086       .  S
C1118      H1120   1.087       .  S
C1121      C1122   1.353       .  D
C1121      H1123   1.087       .  S
C1122      H1124   1.086       .  S
C1125      C1126   1.342       .  D
C1126      H1128   1.086       .  S
C1129      C1130   1.345       .  D
C1129      H1131   1.088       .  S
C1130      H1132   1.086       .  S
C1133      C1134   1.356       .  D
C1133      H1135   1.087       .  S
C1134      H1136   1.086       .  S
C1137      C1138   1.346       .  D
C1137      H1139   1.087       .  S
C1138      H1140   1.086       .  S
C1141      C1142   1.355       .  D
C1141      H1143   1.086       .  S
C1142      H1144   1.087       .  S
C1145      C1146   1.346       .  D
C1145      H1147   1.087       .  S
C1146      H1148   1.086       .  S
C1149      C1150   1.344   1_545  D
C1149      H1151   1.086       .  S
C1153      N1154   1.363       .  A
C1153      N1734   1.372       .  A
C1153      C1725   1.482       .  S
N1154      C1155   1.349       .  A
C1155      N1156   1.357       .  A
C1155      C1232   1.466       .  S
N1156      C1733   1.354       .  A
C1157      N1732   1.355   1_545  A
C1157      N1158   1.363       .  A
C1157      C1161   1.478       .  S
N1158      C1729   1.367       .  A
C1159      N1160   1.354       .  A
C1159      N1164   1.362       .  A
C1159      C1721   1.458       .  S
N1160      C1161   1.354       .  A
C1161      N1162   1.360       .  A
N1162      C1163   1.370       .  A
C1163      N1164   1.356       .  A
C1163      C1213   1.479       .  S
C1165      N1166   1.360       .  A
C1165      N1170   1.363       .  A
C1165      C1718   1.479       .  S
N1166      C1167   1.358       .  A
C1167      N1168   1.373       .  A
N1168      C1169   1.370       .  A
C1169      N1170   1.360       .  A
C1169      C1175   1.502       .  S
C1171      N1748   1.364   1_545  A
C1171      N1176   1.363       .  A
C1171      C1713   1.486       .  S
N1172      C1747   1.363       .  A
N1172      C1173   1.360       .  A
C1173      N1174   1.374       .  A
C1173      C1212   1.486       .  S
N1174      C1751   1.371       .  A
C1175      N1750   1.371       .  A
C1175      N1176   1.360       .  A
C1177      N1178   1.363       .  A
C1177      N1182   1.360       .  A
C1177      C1709   1.471       .  S
N1178      C1179   1.358       .  A
C1179      N1180   1.355       .  A
C1179      C1185   1.478       .  S
C1181      C1225   1.468       .  S
C1183      N1184   1.358       .  A
C1183      N1188   1.363       .  A
C1183      C1705   1.470       .  S
N1184      C1185   1.357       .  A
C1185      N1186   1.357       .  A
N1186      C1187   1.364       .  A
C1187      N1188   1.359       .  A
C1187      C1211   1.477       .  S
Zr1189     O1190   2.436       .  S
Zr1189     O1191   2.390       .  S
Zr1189     O1192   2.516       .  S
Zr1189     O1195   2.539       .  S
Zr1189     O1197   2.388       .  S
Zr1189     O1198   2.387       .  S
Zr1189     O1199   2.434       .  S
Zr1189     O1200   2.406       .  S
O1190      H1246   0.990       .  S
O1190      H1254   0.990       .  S
O1191      C1211   1.278       .  A
O1192      C1213   1.292       .  A
O1193     Zr1203   2.376       .  S
O1193      C1212   1.272       .  A
O1194     Zr1202   2.374       .  S
O1194      C1213   1.261       .  A
O1195      C1212   1.306       .  A
O1196     Zr1204   2.483       .  S
O1196      C1211   1.294       .  A
O1197     Zr1202   2.382       .  S
O1197     Zr1204   2.340       .  S
O1198     Zr1203   2.376       .  S
O1198     Zr1204   2.363       .  S
O1198      H1233   0.966       .  S
O1199     Zr1202   2.412       .  S
O1199     Zr1219   2.395       .  S
O1199      H1236   0.966       .  S
O1200     Zr1203   2.403       .  S
O1200     Zr1219   2.409       .  S
Zr1201     O1226   2.434       .  S
Zr1201     O1220   2.400       .  S
Zr1201     O1228   2.487       .  S
Zr1201     O1216   2.499       .  S
Zr1201     O1207   2.417       .  S
Zr1201     O1208   2.414       .  S
Zr1201     O1209   2.372       .  S
Zr1201     O1210   2.383       .  S
Zr1202     O1221   2.438       .  S
Zr1202     O1214   2.435       .  S
Zr1202     O1215   2.400       .  S
Zr1202     O1208   2.387       .  S
Zr1202     O1209   2.363       .  S
Zr1203     O1205   2.436       .  S
Zr1203     O1227   2.437       .  S
Zr1203     O1229   2.380       .  S
Zr1203     O1207   2.380       .  S
Zr1203     O1210   2.379       .  S
Zr1204     O1230   2.436       .  S
Zr1204     O1231   2.434       .  S
Zr1204     O1206   2.436       .  S
Zr1204     O1207   2.416       .  S
Zr1204     O1208   2.430       .  S
O1205      H1242   0.990       .  S
O1206      H1237   0.990       .  S
O1206      H1251   0.990       .  S
O1208      H1234   0.966       .  S
O1209     Zr1219   2.366       .  S
O1210     Zr1219   2.353       .  S
O1210      H1235   0.966       .  S
O1214      H1250   0.990       .  S
O1215      C1217   1.276       .  A
O1216      C1217   1.298       .  A
O1218     Zr1219   2.437       .  S
O1218      H1247   0.990       .  S
Zr1219     O1222   2.435       .  S
Zr1219     O1223   2.438       .  S
Zr1219     O1224   2.453       .  S
O1220      C1225   1.280       .  A
O1221      H1238   0.990       .  S
O1221      H1253   0.990       .  S
O1222      H1239   0.990       .  S
O1223      H1243   0.990       .  S
O1223      H1252   0.990       .  S
O1224      C1225   1.288       .  A
O1226      H1245   0.990       .  S
O1226      H1249   0.990       .  S
O1227      H1241   0.990       .  S
O1227      H1248   0.990       .  S
O1228      C1232   1.295       .  A
O1229      C1232   1.275       .  A
O1230      H1240   0.990       .  S
O1231      H1244   0.990       .  S
Zr1255     O1256   2.442       .  S
Zr1255     O1257   2.439       .  S
Zr1255     O1258   2.424       .  S
Zr1255     O1261   2.399       .  S
Zr1255     O1263   2.380       .  S
Zr1255     O1264   2.389       .  S
Zr1255     O1265   2.412       .  S
Zr1255     O1266   2.403       .  S
O1256      H1312   0.990       .  S
O1256      H1320   0.990       .  S
O1257      C1277   1.283       .  A
O1258      C1279   1.282       .  A
O1259     Zr1269   2.444       .  S
O1259      C1278   1.280       .  A
O1260     Zr1268   2.435       .  S
O1260      C1279   1.283       .  A
O1261      C1278   1.275       .  A
O1262     Zr1270   2.448       .  S
O1262      C1277   1.286       .  A
O1263     Zr1268   2.408       .  S
O1263     Zr1270   2.378       .  S
O1264     Zr1269   2.402       .  S
O1264     Zr1270   2.372       .  S
O1264      H1299   0.966       .  S
O1265     Zr1268   2.404       .  S
O1265     Zr1285   2.403       .  S
O1265      H1302   0.966       .  S
O1266     Zr1269   2.395       .  S
O1266     Zr1285   2.394       .  S
Zr1267     O1292   2.442       .  S
Zr1267     O1286   2.434       .  S
Zr1267     O1294   2.396       .  S
Zr1267     O1282   2.397       .  S
Zr1267     O1273   2.403       .  S
Zr1267     O1274   2.405       .  S
Zr1267     O1275   2.369       .  S
Zr1267     O1276   2.379       .  S
Zr1268     O1287   2.437       .  S
Zr1268     O1280   2.434       .  S
Zr1268     O1281   2.461       .  S
Zr1268     O1274   2.395       .  S
Zr1268     O1275   2.390       .  S
Zr1269     O1271   2.435   1_545  S
Zr1269     O1293   2.439       .  S
Zr1269     O1295   2.444       .  S
Zr1269     O1273   2.389       .  S
Zr1269     O1276   2.396       .  S
Zr1270     O1296   2.435       .  S
Zr1270     O1297   2.436       .  S
Zr1270     O1272   2.438       .  S
Zr1270     O1273   2.396       .  S
Zr1270     O1274   2.399       .  S
O1271      H1308   0.990       .  S
O1272      H1303   0.990       .  S
O1272      H1317   0.989       .  S
O1274      H1300   0.966       .  S
O1275     Zr1285   2.376       .  S
O1276     Zr1285   2.372       .  S
O1276      H1301   0.967       .  S
C1277      C1697   1.483       .  S
C1278      C1702   1.470       .  S
C1279      C1693   1.471       .  S
O1280      H1316   0.990       .  S
O1281      C1283   1.288       .  A
O1282      C1283   1.279       .  A
C1283      C1710   1.477       .  S
O1284     Zr1285   2.437       .  S
O1284      H1313   0.990       .  S
Zr1285     O1288   2.434       .  S
Zr1285     O1289   2.438   1_545  S
Zr1285     O1290   2.444       .  S
O1286      C1291   1.284       .  A
O1287      H1304   0.990       .  S
O1287      H1319   0.990       .  S
O1288      H1305   0.989       .  S
O1289      H1885   0.990       .  S
O1289      H1318   0.990       .  S
O1290      C1291   1.285       .  A
C1291      C1714   1.484       .  S
O1292      H1311   0.990       .  S
O1292      H1315   0.990       .  S
O1293      H1307   0.990       .  S
O1293      H1314   0.990       .  S
O1294      C1298   1.275       .  A
O1295      C1298   1.282       .  A
O1296      H1306   0.990       .  S
O1297      H1310   0.990       .  S
C1298      C1722   1.463       .  S
H1309      O1865   0.990       .  S
C1321      N1322   1.362       .  A
C1321      N1326   1.362       .  A
C1321      C1690   1.469       .  S
N1322      C1323   1.355       .  A
C1323      N1324   1.373       .  A
C1323      C1329   1.507       .  S
N1324      C1325   1.377       .  A
C1325      N1326   1.358       .  A
C1325      C1381   1.495       .  S
C1327      N1328   1.361       .  A
C1327      N1332   1.363       .  A
C1327      C2277   1.470       .  S
N1328      C1329   1.355       .  A
C1329      N1330   1.373       .  A
N1330      C1331   1.378       .  A
C1331      N1332   1.358       .  A
C1331      C1400   1.497       .  S
C1333      N1334   1.354       .  A
C1333      N1338   1.370       .  A
C1333      C1685   1.488       .  S
N1334      C1335   1.346       .  A
C1335      N1336   1.355       .  A
C1335      C1393   1.449       .  S
N1336      C1337   1.351       .  A
C1337      N1338   1.373       .  A
C1337      C1341   1.481       .  S
C1339      N1340   1.370       .  A
C1339      N1344   1.355       .  A
C1339      C1698   1.487       .  S
N1340      C1341   1.372       .  A
C1341      N1342   1.349       .  A
N1342      C1343   1.354       .  A
C1343      N1344   1.351       .  A
C1343      C1379   1.449       .  S
C1345      N1346   1.360       .  A
C1345      N1350   1.369       .  A
C1345      C1682   1.476       .  S
N1346      C1347   1.354       .  A
C1347      N1348   1.365       .  A
N1348      C1349   1.368       .  A
C1349      N1350   1.364       .  A
C1349      C1380   1.485       .  S
C1351      N1352   1.360       .  A
C1351      N1356   1.354       .  A
C1351      C1694   1.471       .  S
C1353      N1354   1.371       .  A
N1354      C1355   1.363       .  A
Zr1357     O1358   2.436       .  S
Zr1357     O1359   2.380       .  S
Zr1357     O1360   2.526       .  S
Zr1357     O1363   2.541       .  S
Zr1357     O1365   2.377       .  S
Zr1357     O1366   2.392       .  S
Zr1357     O1367   2.412       .  S
Zr1357     O1368   2.407       .  S
O1358      H1414   0.990       .  S
O1358      H1422   0.990       .  S
O1359      C1379   1.276       .  A
O1360      C1381   1.305       .  A
O1361     Zr1371   2.363       .  S
O1361      C1380   1.270       .  A
O1362     Zr1946   2.400       .  S
O1362      C1381   1.275       .  A
O1363      C1380   1.305       .  A
O1364     Zr1372   2.434       .  S
O1364      C1379   1.284       .  A
O1365     Zr1946   2.372       .  S
O1365     Zr1372   2.363       .  S
O1366     Zr1371   2.384       .  S
O1366     Zr1372   2.374       .  S
O1366      H1401   0.966       .  S
O1367     Zr1946   2.405       .  S
O1367     Zr1963   2.417       .  S
O1367      H1404   0.965       .  S
O1368     Zr1371   2.396       .  S
O1368     Zr1963   2.401       .  S
Zr1369     O1394   2.434       .  S
Zr1369     O1388   2.362       .  S
Zr1369     O1396   2.524       .  S
Zr1369     O1384   2.535       .  S
Zr1369     O1954   2.392       .  S
Zr1370     O1389   2.436       .  S
Zr1370     O1382   2.435       .  S
Zr1370     O1938   2.398   1_545  S
Zr1370     O1383   2.382       .  S
Zr1370     O1941   2.366   1_545  S
Zr1370     O1943   2.399   1_545  S
Zr1370     O1376   2.406       .  S
Zr1370     O1377   2.385       .  S
Zr1371     O1395   2.438   1_655  S
Zr1371     O1375   2.394       .  S
Zr1372     O1398   2.437       .  S
Zr1372     O1399   2.435       .  S
Zr1372     O1374   2.438       .  S
Zr1372     O1375   2.408       .  S
Zr1372     O1952   2.396       .  S
O1373      H1410   0.990       .  S
O1374      H1405   0.990       .  S
O1374      H1419   0.990       .  S
O1376     Zr1948   2.391   1_545  S
O1376      H1402   0.966       .  S
O1377     Zr1387   2.358       .  S
O1378     Zr1945   2.387       .  S
O1378      H1979   0.965       .  S
O1382      H1994   0.990       .  S
O1383      C1385   1.267       .  A
O1386     Zr1963   2.435       .  S
O1386      H1991   0.990       .  S
Zr1387     O1962   2.435       .  S
Zr1387     O1390   2.436       .  S
Zr1387     O1943   2.409   1_545  S
Zr1387     O1944   2.414   1_545  S
O1388      C1393   1.273       .  A
O1389      H1406   0.990       .  S
O1389      H1421   0.990       .  S
O1391      H1987   0.990       .  S
O1391      H1420   0.990       .  S
O1392      C1393   1.290       .  A
O1394      H1413   0.990       .  S
O1394      H1417   0.990       .  S
O1395      H1416   0.990   1_455  S
O1396      C1976   1.304   1_545  A
O1397      C1400   1.276       .  A
O1398      H1408   0.990       .  S
O1399      H1412   0.990       .  S
C1400      O1972   1.306       .  A
H1403      O1954   0.965       .  S
H1411      O1967   0.990       .  S
H1415      O1962   0.990   1_565  S
H1418      O1958   0.990       .  S
C1423      N1424   1.357       .  A
C1423      N1428   1.360       .  A
C1423      C1678   1.471       .  S
N1424      C1425   1.353       .  A
C1425      N1426   1.374       .  A
C1425      C1482   1.475       .  S
N1426      C1427   1.368       .  A
C1427      N1428   1.365       .  A
C1427      C1433   1.502       .  S
C1429      N1430   1.362       .  A
C1429      N1434   1.375       .  A
C1429      C1674   1.489       .  S
N1430      C1431   1.349       .  A
C1431      N1432   1.360       .  A
C1431      C2063   1.472       .  S
N1432      C1433   1.360       .  A
C1433      N1434   1.372       .  A
C1435      N1436   1.361       .  A
C1435      N1440   1.365       .  A
C1435      C1670   1.478       .  S
N1436      C1437   1.357       .  A
C1437      N1438   1.373       .  A
C1437      C2059   1.492       .  S
N1438      C1439   1.370       .  A
C1439      N1440   1.359       .  A
C1439      C1445   1.502       .  S
C1441      N1442   1.358       .  A
C1441      C1665   1.469   1_655  S
N1442      C1443   1.355       .  A
C1443      N1444   1.376       .  A
C1443      C1502   1.479       .  S
C1445      N1446   1.357       .  A
C1447      N1448   1.362       .  A
C1447      N1452   1.358       .  A
C1447      C1661   1.472       .  S
N1448      C1449   1.360       .  A
C1449      N1450   1.366       .  A
C1449      C1481   1.475       .  S
N1450      C1451   1.358       .  A
C1451      N1452   1.357       .  A
C1453      N1454   1.363   1_655  A
C1453      N1458   1.356       .  A
C1453      C1657   1.466   1_655  S
N1454      C1455   1.359       .  A
C1455      N1456   1.357   1_455  A
N1456      C1457   1.360       .  A
C1457      N1458   1.351       .  A
C1457      C1495   1.461       .  S
Zr1459     O1460   2.434       .  S
Zr1459     O1461   2.388       .  S
Zr1459     O1462   2.524       .  S
Zr1459     O1465   2.503       .  S
Zr1459     O1467   2.378       .  S
Zr1459     O1468   2.399       .  S
Zr1459     O1469   2.412       .  S
Zr1459     O1470   2.418       .  S
O1460      H1516   0.990       .  S
O1460      H1524   0.990       .  S
O1461      C1481   1.278       .  A
O1462      C1483   1.302       .  A
O1463     Zr1473   2.370       .  S
O1463      C1482   1.265       .  A
O1464     Zr1472   2.389       .  S
O1464      C1483   1.273       .  A
O1465      C1482   1.294       .  A
O1466     Zr1474   2.479       .  S
O1466      C1481   1.294       .  A
O1467     Zr1472   2.368       .  S
O1467     Zr1474   2.358       .  S
O1468     Zr1473   2.381       .  S
O1468     Zr1474   2.364       .  S
O1468      H1503   0.967       .  S
O1469     Zr1472   2.394       .  S
O1469     Zr1489   2.407       .  S
O1469      H1506   0.966       .  S
O1470     Zr1473   2.404       .  S
O1470     Zr1489   2.410       .  S
Zr1471     O1496   2.435       .  S
Zr1471     O1490   2.373       .  S
Zr1471     O1498   2.517       .  S
Zr1471     O1486   2.490       .  S
Zr1471     O1477   2.405       .  S
Zr1471     O1478   2.421       .  S
Zr1471     O1479   2.376       .  S
Zr1471     O1480   2.383       .  S
Zr1472     O1491   2.441   1_545  S
Zr1472     O1484   2.435   1_545  S
Zr1472     O1485   2.377       .  S
Zr1472     O1478   2.394       .  S
Zr1472     O1479   2.368       .  S
Zr1473     O1475   2.439       .  S
Zr1473     O1497   2.436       .  S
Zr1473     O1499   2.386       .  S
Zr1473     O1477   2.385       .  S
Zr1473     O1480   2.380       .  S
Zr1474     O1500   2.435       .  S
Zr1474     O1501   2.436       .  S
Zr1474     O1476   2.438       .  S
Zr1474     O1477   2.422       .  S
Zr1474     O1478   2.412       .  S
O1475      H1512   0.990       .  S
O1476      H1507   0.990       .  S
O1476      H1521   0.990       .  S
O1478      H1504   0.966       .  S
O1479     Zr1489   2.351       .  S
O1480     Zr1489   2.360       .  S
O1480      H1505   0.963       .  S
C1483      C2013   1.486   1_545  S
O1484      H1520   0.990       .  S
O1485      C1487   1.274       .  A
O1486      C1487   1.296       .  A
C1487      C2007   1.467   1_545  S
O1488     Zr1489   2.435       .  S
O1488      H1517   0.990       .  S
Zr1489     O1492   2.437       .  S
Zr1489     O1493   2.438       .  S
Zr1489     O1494   2.467       .  S
O1490      C1495   1.274       .  A
O1491      H2084   0.990       .  S
O1491      H1523   0.990       .  S
O1492      H1509   0.990       .  S
O1493      H1513   0.990       .  S
O1493      H1522   0.990       .  S
O1494      C1495   1.291       .  A
O1496      H1515   0.990       .  S
O1496      H1519   0.990       .  S
O1497      H1511   0.990       .  S
O1497      H1518   0.990       .  S
O1498      C1502   1.301       .  A
O1499      C1502   1.273       .  A
O1500      H1510   0.990       .  S
O1501      H1514   0.990       .  S
H1508      O2067   0.990       .  S
Zr1525     O1527   2.442       .  S
Zr1525     O1528   2.405       .  S
Zr1525     O1533   2.371       .  S
Zr1525     O2110   2.379       .  S
Zr1525     O1535   2.400   1_655  S
O1526      H1582   0.991       .  S
O1526      H1590   0.990       .  S
O1527      C1547   1.284       .  A
O1528      C1549   1.281       .  A
O1529      C1548   1.287       .  A
O1530     Zr1538   2.447       .  S
O1530      C1549   1.285       .  A
O1531      C1548   1.279       .  A
O1532     Zr1540   2.438       .  S
O1532      C1547   1.284       .  A
O1533     Zr1538   2.397       .  S
O1533     Zr1540   2.373       .  S
O1534     Zr2101   2.376   1_545  S
O1534     Zr1539   2.400       .  S
O1534     Zr2116   2.368   1_545  S
O1534      H1569   0.967       .  S
O1535     Zr1538   2.405   1_455  S
O1536     Zr2131   2.388   1_545  S
Zr1537     O1562   2.447       .  S
Zr1537     O1556   2.433   1_655  S
Zr1537     O2140   2.388       .  S
Zr1537     O1552   2.407       .  S
Zr1537     O2119   2.397   1_554  S
Zr1537     O1544   2.400   1_554  S
Zr1537     O1545   2.372   1_655  S
Zr1538     O1557   2.436       .  S
Zr1538     O1550   2.434       .  S
Zr1538     O1551   2.450   1_556  S
Zr1538     O1544   2.398       .  S
Zr1538     O1545   2.393   1_656  S
Zr1539     O1563   2.435       .  S
Zr1539     O1565   2.462   1_556  S
Zr1539     O1543   2.396       .  S
Zr1540     O2142   2.438       .  S
Zr1540     O1567   2.435       .  S
Zr1540     O1542   2.436       .  S
Zr1540     O2110   2.366       .  S
Zr1540     O2119   2.399       .  S
Zr1540     O1544   2.403       .  S
O1541      H1578   0.990       .  S
O1542      H1573   0.990       .  S
O1542      H1587   0.990       .  S
O1543     Zr2113   2.397   1_546  S
O1543     Zr2116   2.410   1_545  S
O1544      H1570   0.966   1_556  S
O1546     Zr2131   2.375   1_544  S
O1546      H1571   0.967       .  S
C1547      C1673   1.480       .  S
C1548      C1662   1.470       .  S
C1549      C1666   1.474       .  S
O1550      H1586   0.990       .  S
O1551      C1553   1.285       .  A
O1552      C1553   1.280       .  A
C1553      C1706   1.472       .  S
O1554     Zr1555   2.439       .  S
O1554      H1583   0.990       .  S
Zr1555     O1558   2.436       .  S
Zr1555     O2135   2.440       .  S
Zr1555     O1560   2.425   1_556  S
Zr1555     O2112   2.388       .  S
Zr1555     O2122   2.374   1_556  S
O1557      H1574   0.990       .  S
O1557      H1589   0.990   1_655  S
O1558      H1575   0.990       .  S
O1559     Zr2131   2.437   1_545  S
O1559      H1579   0.990   1_556  S
O1559      H1588   0.990       .  S
O1560      C1561   1.282       .  A
C1561      C1726   1.474       .  S
O1562      H1581   0.990       .  S
O1562      H1585   0.990       .  S
O1563      H1577   0.990       .  S
O1563      H1584   0.990       .  S
O1564     Zr2113   2.406   1_545  S
O1564      C1568   1.279       .  A
O1565      C1568   1.288       .  A
O1566     Zr2116   2.436       .  S
O1566      H2152   0.990   1_565  S
O1567      H1580   0.990   1_556  S
C1568      C1717   1.484       .  S
H1576      O2142   0.990       .  S
Zr1591     O1592   2.442       .  S
Zr1591     O1593   2.420       .  S
Zr1591     O1594   2.396       .  S
Zr1591     O1597   2.382       .  S
Zr1591     O1599   2.370       .  S
Zr1591     O1600   2.377       .  S
Zr1591     O1601   2.397       .  S
Zr1591     O1602   2.390       .  S
O1592      H1648   0.991       .  S
O1592      H1656   0.990       .  S
O1593      C1613   1.281       .  A
O1594      C1615   1.277       .  A
O1595     Zr1605   2.464       .  S
O1595      C1614   1.290       .  A
O1596     Zr1604   2.473       .  S
O1596      C1615   1.290       .  A
O1597      C1614   1.277       .  A
O1598     Zr1606   2.446       .  S
O1598      C1613   1.286       .  A
O1599     Zr1604   2.393       .  S
O1599     Zr1606   2.372       .  S
O1600     Zr1605   2.391       .  S
O1600     Zr1606   2.379       .  S
O1600      H1635   0.965       .  S
O1601     Zr1604   2.404       .  S
O1601     Zr1621   2.400       .  S
O1601      H1638   0.966       .  S
O1602     Zr1605   2.393       .  S
O1602     Zr1621   2.385       .  S
Zr1603     O1628   2.443       .  S
Zr1603     O1622   2.450       .  S
Zr1603     O1630   2.414       .  S
Zr1603     O1618   2.377       .  S
Zr1603     O1609   2.396       .  S
Zr1603     O1610   2.404       .  S
Zr1603     O1611   2.373       .  S
Zr1603     O1612   2.375       .  S
Zr1604     O1623   2.437       .  S
Zr1604     O1616   2.435       .  S
Zr1604     O1617   2.475       .  S
Zr1604     O1610   2.399       .  S
Zr1604     O1611   2.390       .  S
Zr1605     O1607   2.434       .  S
Zr1605     O1631   2.459       .  S
Zr1605     O1609   2.395       .  S
Zr1605     O1612   2.393       .  S
Zr1606     O1632   2.436       .  S
Zr1606     O1633   2.436       .  S
Zr1606     O1608   2.437       .  S
Zr1606     O1609   2.403       .  S
Zr1606     O1610   2.404       .  S
O1608      H1639   0.990       .  S
O1608      H1653   0.990       .  S
O1610      H1636   0.965       .  S
O1611     Zr1621   2.366       .  S
O1612     Zr1621   2.382       .  S
O1612      H1637   0.966       .  S
C1613      C1669   1.476       .  S
C1614      C1658   1.474       .  S
C1615      C1677   1.478       .  S
O1616      H1652   0.990       .  S
O1617      C1619   1.292       .  A
O1618      C1619   1.277       .  A
C1619      C1689   1.482       .  S
O1620     Zr1621   2.435       .  S
O1620      H1649   0.990       .  S
Zr1621     O1624   2.434       .  S
Zr1621     O1625   2.440       .  S
Zr1621     O1626   2.418       .  S
O1622      C1627   1.286       .  A
O1623      H1640   0.990       .  S
O1623      H1655   0.990       .  S
O1624      H1641   0.990       .  S
O1625      H1645   0.990       .  S
O1625      H1654   0.989       .  S
O1626      C1627   1.281       .  A
C1627      C1686   1.473       .  S
O1628      H1647   0.990       .  S
O1628      H1651   0.990       .  S
O1629      H1643   0.990       .  S
O1630      C1634   1.283       .  A
O1631      C1634   1.288       .  A
O1632      H1642   0.990       .  S
O1633      H1646   0.990       .  S
C1661      C1662   1.342       .  D
C1661      H1663   1.088       .  S
C1662      H1664   1.086       .  S
C1665      C1666   1.347   1_455  D
C1665      H1667   1.088       .  S
C1666      H1668   1.086       .  S
C1669      C1670   1.344       .  D
C1669      H1671   1.087       .  S
C1670      H1672   1.086       .  S
C1673      C1674   1.352       .  D
C1673      H1675   1.087       .  S
C1674      H1676   1.086       .  S
C1677      C1678   1.350       .  D
C1677      H1679   1.086       .  S
C1678      H1680   1.087       .  S
C1681      C1682   1.342       .  D
C1682      H1684   1.088       .  S
C1685      C1686   1.351       .  D
C1685      H1687   1.086       .  S
C1686      H1688   1.087       .  S
C1689      C1690   1.352       .  D
C1689      H1691   1.086       .  S
C1690      H1692   1.087       .  S
C1693      C1694   1.341       .  D
C1693      H1695   1.086       .  S
C1694      H1696   1.088       .  S
C1697      C1698   1.353       .  D
C1697      H1699   1.087       .  S
C1698      H1700   1.086       .  S
C1701      C1903   1.463       .  S
C1701      C1702   1.344       .  D
C1701      H2279   1.087       .  S
C1702      H1704   1.086       .  S
H1703      C2277   1.085       .  S
C1705      C1706   1.342       .  D
C1705      H1707   1.088       .  S
C1706      H1708   1.086       .  S
C1709      C1710   1.350       .  D
C1709      H1711   1.087       .  S
C1710      H1712   1.086       .  S
C1713      C1714   1.348       .  D
C1713      H1715   1.087       .  S
C1714      H1716   1.086   1_545  S
C1717      C1718   1.352       .  D
C1717      H1719   1.086       .  S
C1718      H1720   1.087       .  S
C1721      C1722   1.339       .  D
C1721      H1723   1.087       .  S
C1722      H1724   1.087       .  S
C1725      C1726   1.347       .  D
C1725      H1727   1.086       .  S
C1726      H2304   1.087       .  S
H1728      C2302   1.087       .  S
C1729      N1730   1.362   1_545  A
C1729      C2301   1.474       .  S
N1730      C1731   1.348       .  A
C1731      N1732   1.357       .  A
C1731      C1808   1.463       .  S
C1733      N1734   1.367       .  A
C1733      C1737   1.487       .  S
C1735      N1736   1.356       .  A
C1735      N1740   1.361       .  A
C1735      C2297   1.458       .  S
N1736      C1737   1.357       .  A
C1737      N1738   1.360       .  A
N1738      C1739   1.372       .  A
C1739      N1740   1.356       .  A
C1739      C1789   1.480       .  S
C1741      N1742   1.358       .  A
C1741      N1746   1.364       .  A
C1741      C2294   1.477       .  S
N1742      C1743   1.356   1_655  A
C1743      N1744   1.370   1_455  A
N1744      C1745   1.368       .  A
C1745      N1746   1.360       .  A
C1745      C1751   1.500       .  S
C1747      N1752   1.361       .  A
C1747      C2289   1.482       .  S
N1748      C1749   1.361       .  A
C1749      N1750   1.373   1_565  A
C1749      C1788   1.489       .  S
C1751      N1752   1.359       .  A
C1753      N1754   1.371       .  A
C1753      N1758   1.357       .  A
C1753      C2285   1.483       .  S
N1754      C1755   1.367       .  A
C1755      N1756   1.355       .  A
C1755      C1761   1.494       .  S
C1757      C1801   1.464       .  S
C1759      N1760   1.366       .  A
C1759      N1764   1.362       .  A
C1759      C2281   1.483       .  S
N1760      C1761   1.365       .  A
C1761      N1762   1.358       .  A
N1762      C1763   1.365       .  A
C1763      N1764   1.360       .  A
C1763      C1787   1.479       .  S
Zr1765     O1766   2.435       .  S
Zr1765     O1767   2.395       .  S
Zr1765     O1768   2.523       .  S
Zr1765     O1771   2.542       .  S
Zr1765     O1773   2.381       .  S
Zr1765     O1774   2.392       .  S
Zr1765     O1775   2.435       .  S
Zr1765     O1776   2.401       .  S
O1766      H1822   0.990       .  S
O1766      H1830   0.991       .  S
O1767      C1787   1.279       .  A
O1768      C1789   1.294       .  A
O1769     Zr1779   2.377       .  S
O1769      C1788   1.272       .  A
O1770     Zr1778   2.378       .  S
O1770      C1789   1.263       .  A
O1771      C1788   1.307       .  A
O1772     Zr1780   2.486       .  S
O1772      C1787   1.295       .  A
O1773     Zr1778   2.380       .  S
O1773     Zr1780   2.328       .  S
O1774     Zr1779   2.380       .  S
O1774     Zr1780   2.372       .  S
O1774      H1809   0.966       .  S
O1775     Zr1778   2.413       .  S
O1775     Zr1795   2.396       .  S
O1775      H1812   0.967       .  S
O1776     Zr1779   2.396       .  S
O1776     Zr1795   2.409       .  S
Zr1777     O1802   2.434       .  S
Zr1777     O1796   2.392       .  S
Zr1777     O1804   2.483       .  S
Zr1777     O1792   2.483       .  S
Zr1777     O1783   2.415       .  S
Zr1777     O1784   2.409       .  S
Zr1777     O1785   2.376       .  S
Zr1777     O1786   2.381       .  S
Zr1778     O1797   2.437       .  S
Zr1778     O1790   2.436       .  S
Zr1778     O1791   2.413       .  S
Zr1778     O1784   2.393       .  S
Zr1778     O1785   2.363       .  S
Zr1779     O1781   2.437       .  S
Zr1779     O1803   2.435       .  S
Zr1779     O1805   2.377       .  S
Zr1779     O1783   2.388       .  S
Zr1779     O1786   2.379       .  S
Zr1780     O1806   2.435       .  S
Zr1780     O1807   2.435       .  S
Zr1780     O1782   2.439       .  S
Zr1780     O1783   2.417       .  S
Zr1780     O1784   2.429       .  S
O1781      H1818   0.991       .  S
O1782      H1813   0.990       .  S
O1782      H1827   0.990       .  S
O1784      H1810   0.967       .  S
O1785     Zr1795   2.368       .  S
O1786     Zr1795   2.356       .  S
O1786      H1811   0.966       .  S
O1790      H1826   0.990       .  S
O1791      C1793   1.279       .  A
O1792      C1793   1.294       .  A
O1794     Zr1795   2.439       .  S
O1794      H1823   0.990       .  S
Zr1795     O1798   2.438       .  S
Zr1795     O1799   2.440       .  S
Zr1795     O1800   2.454       .  S
O1796      C1801   1.278       .  A
O1797      H1814   0.990       .  S
O1797      H1829   0.990       .  S
O1798      H1815   0.990       .  S
O1799      H1819   0.990       .  S
O1799      H1828   0.990       .  S
O1800      C1801   1.289       .  A
O1802      H1821   0.990       .  S
O1802      H1825   0.990       .  S
O1803      H1817   0.990       .  S
O1803      H1824   0.990       .  S
O1804      C1808   1.294       .  A
O1805      C1808   1.274       .  A
O1806      H1816   0.990       .  S
O1807      H1820   0.990       .  S
Zr1831     O1832   2.442       .  S
Zr1831     O1833   2.443       .  S
Zr1831     O1834   2.417       .  S
Zr1831     O1837   2.402       .  S
Zr1831     O1839   2.382       .  S
Zr1831     O1840   2.387       .  S
Zr1831     O1841   2.409       .  S
Zr1831     O1842   2.402       .  S
O1832      H1888   0.990       .  S
O1832      H1896   0.991       .  S
O1833      C1853   1.283       .  A
O1834      C1855   1.281       .  A
O1835     Zr1845   2.455       .  S
O1835      C1854   1.283       .  A
O1836     Zr1844   2.466       .  S
O1836      C1855   1.290       .  A
O1837      C1854   1.275       .  A
O1838     Zr1846   2.455       .  S
O1838      C1853   1.288       .  A
O1839     Zr1844   2.414       .  S
O1839     Zr1846   2.375       .  S
O1840     Zr1845   2.405       .  S
O1840     Zr1846   2.363       .  S
O1840      H1875   0.965       .  S
O1841     Zr1844   2.412       .  S
O1841     Zr1861   2.401       .  S
O1841      H1878   0.966       .  S
O1842     Zr1845   2.401       .  S
O1842     Zr1861   2.392       .  S
Zr1843     O1868   2.442       .  S
Zr1843     O1862   2.438       .  S
Zr1843     O1870   2.382       .  S
Zr1843     O1858   2.376       .  S
Zr1843     O1849   2.404       .  S
Zr1843     O1850   2.398       .  S
Zr1843     O1851   2.367       .  S
Zr1843     O1852   2.372       .  S
Zr1844     O1863   2.436       .  S
Zr1844     O1856   2.435       .  S
Zr1844     O1857   2.507       .  S
Zr1844     O1850   2.391       .  S
Zr1844     O1851   2.392       .  S
Zr1845     O1847   2.434       .  S
Zr1845     O1869   2.437       .  S
Zr1845     O1871   2.460       .  S
Zr1845     O1849   2.392       .  S
Zr1845     O1852   2.393       .  S
Zr1846     O1872   2.435       .  S
Zr1846     O1873   2.436       .  S
Zr1846     O1848   2.438       .  S
Zr1846     O1849   2.406       .  S
Zr1846     O1850   2.397       .  S
O1847      H1884   0.990       .  S
O1848      H1879   0.990       .  S
O1848      H1893   0.990       .  S
O1850      H1876   0.964       .  S
O1851     Zr1861   2.382       .  S
O1852     Zr1861   2.374       .  S
O1852      H1877   0.966       .  S
C1853      C2273   1.489       .  S
C1854      C2278   1.479       .  S
C1855      C2269   1.485       .  S
O1856      H1892   0.990       .  S
O1857      C1859   1.298       .  A
O1858      C1859   1.275       .  A
C1859      C2286   1.491       .  S
O1860     Zr1861   2.436       .  S
O1860      H1889   0.990       .  S
Zr1861     O1864   2.434       .  S
Zr1861     O1865   2.438       .  S
Zr1861     O1866   2.436       .  S
O1862      C1867   1.285       .  A
O1863      H1880   0.990       .  S
O1863      H1895   0.990       .  S
O1864      H1881   0.990       .  S
O1865      H1894   0.990       .  S
O1866      C1867   1.283       .  A
C1867      C2290   1.482       .  S
O1868      H1887   0.990       .  S
O1868      H1891   0.990       .  S
O1869      H1883   0.990       .  S
O1869      H1890   0.990       .  S
O1870      C1874   1.274       .  A
O1871      C1874   1.287       .  A
O1872      H1882   0.990       .  S
O1873      H1886   0.990       .  S
C1874      C2298   1.473       .  S
C1897      N1898   1.357       .  A
C1897      N1902   1.360       .  A
C1897      C2266   1.460       .  S
N1898      C1899   1.353       .  A
C1899      N1900   1.370       .  A
C1899      C1905   1.494       .  S
N1900      C1901   1.375       .  A
C1901      N1902   1.357       .  A
C1901      C1957   1.490       .  S
C1903      N1904   1.360   1_545  A
C1903      N1908   1.362       .  A
N1904      C1905   1.353       .  A
C1905      N1906   1.368       .  A
N1906      C1907   1.372       .  A
C1907      N1908   1.355   1_565  A
C1907      C1976   1.487       .  S
C1909      N1910   1.351       .  A
C1909      N1914   1.375       .  A
C1909      C2261   1.493       .  S
N1910      C1911   1.344       .  A
C1911      N1912   1.354       .  A
C1911      C1969   1.442       .  S
N1912      C1913   1.349       .  A
C1913      N1914   1.378       .  A
C1913      C1917   1.489       .  S
C1915      N1916   1.372       .  A
C1915      N1920   1.355       .  A
C1915      C2274   1.494       .  S
N1916      C1917   1.376       .  A
C1917      N1918   1.350       .  A
N1918      C1919   1.357       .  A
C1919      N1920   1.351       .  A
C1919      C1955   1.452       .  S
C1921      N1922   1.371       .  A
C1921      N1926   1.361       .  A
C1921      C2258   1.487       .  S
N1922      C1923   1.367       .  A
C1923      N1924   1.364       .  A
N1924      C1925   1.367       .  A
C1925      N1926   1.355       .  A
C1925      C1956   1.476       .  S
C1927      N1928   1.365       .  A
C1927      N1932   1.363       .  A
C1927      C2270   1.481       .  S
C1929      N1930   1.370       .  A
N1930      C1931   1.365       .  A
Zr1933     O1934   2.435       .  S
Zr1933     O1935   2.369       .  S
Zr1933     O1936   2.510       .  S
Zr1933     O1939   2.523       .  S
Zr1933     O1941   2.386       .  S
Zr1933     O1942   2.388       .  S
Zr1933     O1943   2.407       .  S
Zr1933     O1944   2.411       .  S
O1934      H1990   0.990       .  S
O1934      H1998   0.990       .  S
O1935      C1955   1.274       .  A
O1936      C1957   1.301       .  A
O1937     Zr1947   2.376       .  S
O1937      C1956   1.273       .  A
O1938      C1957   1.275       .  A
O1939      C1956   1.302       .  A
O1940     Zr1948   2.452       .  S
O1940      C1955   1.288       .  A
O1941     Zr1948   2.363       .  S
O1942     Zr1947   2.380       .  S
O1942     Zr1948   2.350       .  S
O1942      H1977   0.965       .  S
O1943      H1980   0.967       .  S
O1944     Zr1947   2.394       .  S
Zr1945     O1970   2.434       .  S
Zr1945     O1964   2.362       .  S
Zr1945     O1972   2.535       .  S
Zr1945     O1960   2.536       .  S
Zr1946     O1965   2.441       .  S
Zr1946     O1958   2.439       .  S
Zr1946     O1959   2.394       .  S
Zr1946     O1952   2.407       .  S
Zr1946     O1953   2.368       .  S
Zr1947     O1971   2.438   1_655  S
Zr1947     O1951   2.395       .  S
Zr1948     O1974   2.436       .  S
Zr1948     O1975   2.434       .  S
Zr1948     O1950   2.436       .  S
Zr1948     O1951   2.409       .  S
O1949      H1986   0.989       .  S
O1950      H1981   0.990       .  S
O1950      H1995   0.990       .  S
O1952      H1978   0.966       .  S
O1953     Zr1963   2.335       .  S
O1959      C1961   1.267       .  A
Zr1963     O1966   2.437       .  S
O1964      C1969   1.272       .  A
O1965      H1982   0.990       .  S
O1965      H1997   0.990       .  S
O1967      H1996   0.990   1_545  S
O1968      C1969   1.287       .  A
O1970      H1989   0.990       .  S
O1970      H1993   0.990       .  S
O1971      H1992   0.990   1_455  S
O1973      C1976   1.274       .  A
O1974      H1984   0.990       .  S
O1975      H1988   0.990       .  S
C1999      N2000   1.358       .  A
C1999      N2004   1.366       .  A
C1999      C2254   1.483       .  S
N2000      C2001   1.355       .  A
C2001      N2002   1.371       .  A
C2001      C2058   1.475       .  S
N2002      C2003   1.364       .  A
C2003      N2004   1.369       .  A
C2003      C2009   1.507       .  S
C2005      N2006   1.362       .  A
C2005      N2010   1.380       .  A
C2005      C2250   1.497       .  S
N2006      C2007   1.349       .  A
C2007      N2008   1.359       .  A
N2008      C2009   1.356       .  A
C2009      N2010   1.376       .  A
C2011      N2012   1.364       .  A
C2011      N2016   1.358       .  A
C2011      C2246   1.478       .  S
N2012      C2013   1.363       .  A
C2013      N2014   1.374       .  A
N2014      C2015   1.367       .  A
C2015      N2016   1.355       .  A
C2015      C2021   1.496       .  S
C2017      N2018   1.359       .  A
C2017      C2241   1.477   1_655  S
N2018      C2019   1.358       .  A
C2019      N2020   1.373       .  A
C2019      C2078   1.480       .  S
C2021      N2022   1.360       .  A
C2023      N2024   1.362       .  A
C2023      N2028   1.357       .  A
C2023      C2237   1.470       .  S
N2024      C2025   1.360       .  A
C2025      N2026   1.367       .  A
C2025      C2057   1.478       .  S
N2026      C2027   1.359       .  A
C2027      N2028   1.357       .  A
C2029      N2030   1.363   1_655  A
C2029      N2034   1.359       .  A
C2029      C2233   1.472   1_655  S
N2030      C2031   1.360   1_455  A
C2031      N2032   1.354       .  A
N2032      C2033   1.358       .  A
C2033      N2034   1.356       .  A
C2033      C2071   1.463       .  S
Zr2035     O2036   2.435       .  S
Zr2035     O2037   2.391       .  S
Zr2035     O2038   2.527       .  S
Zr2035     O2041   2.500       .  S
Zr2035     O2043   2.383       .  S
Zr2035     O2044   2.407       .  S
Zr2035     O2045   2.406       .  S
Zr2035     O2046   2.416       .  S
O2036      H2092   0.990       .  S
O2036      H2100   0.990       .  S
O2037      C2057   1.278       .  A
O2038      C2059   1.303       .  A
O2039     Zr2049   2.378       .  S
O2039      C2058   1.266       .  A
O2040     Zr2048   2.395       .  S
O2040      C2059   1.273       .  A
O2041      C2058   1.293       .  A
O2042     Zr2050   2.485       .  S
O2042      C2057   1.295       .  A
O2043     Zr2048   2.375       .  S
O2043     Zr2050   2.363       .  S
O2044     Zr2049   2.388       .  S
O2044     Zr2050   2.362       .  S
O2044      H2079   0.966       .  S
O2045     Zr2048   2.402       .  S
O2045     Zr2065   2.402       .  S
O2045      H2082   0.966       .  S
O2046     Zr2049   2.405       .  S
O2046     Zr2065   2.397       .  S
Zr2047     O2072   2.436       .  S
Zr2047     O2066   2.394       .  S
Zr2047     O2074   2.500       .  S
Zr2047     O2062   2.492       .  S
Zr2047     O2053   2.409       .  S
Zr2047     O2054   2.421       .  S
Zr2047     O2055   2.367       .  S
Zr2047     O2056   2.385       .  S
Zr2048     O2067   2.438       .  S
Zr2048     O2060   2.438       .  S
Zr2048     O2061   2.392       .  S
Zr2048     O2054   2.390       .  S
Zr2048     O2055   2.371       .  S
Zr2049     O2051   2.440       .  S
Zr2049     O2073   2.437       .  S
Zr2049     O2075   2.400       .  S
Zr2049     O2053   2.381       .  S
Zr2049     O2056   2.377       .  S
Zr2050     O2076   2.438       .  S
Zr2050     O2077   2.435       .  S
Zr2050     O2052   2.435       .  S
Zr2050     O2053   2.421       .  S
Zr2050     O2054   2.416       .  S
O2051      H2088   0.990       .  S
O2052      H2083   0.990       .  S
O2052      H2097   0.990       .  S
O2054      H2080   0.966       .  S
O2055     Zr2065   2.354       .  S
O2056     Zr2065   2.368       .  S
O2056      H2081   0.964       .  S
O2060      H2096   0.990       .  S
O2061      C2063   1.276       .  A
O2062      C2063   1.296       .  A
O2064     Zr2065   2.436       .  S
O2064      H2093   0.990       .  S
Zr2065     O2068   2.436       .  S
Zr2065     O2069   2.438       .  S
Zr2065     O2070   2.453       .  S
O2066      C2071   1.279       .  A
O2067      H2099   0.990       .  S
O2068      H2085   0.990       .  S
O2069      H2089   0.990       .  S
O2069      H2098   0.990       .  S
O2070      C2071   1.288       .  A
O2072      H2091   0.990       .  S
O2072      H2095   0.990       .  S
O2073      H2087   0.990       .  S
O2073      H2094   0.988       .  S
O2074      C2078   1.299       .  A
O2075      C2078   1.276       .  A
O2076      H2086   0.990       .  S
O2077      H2090   0.990       .  S
Zr2101     O2103   2.448       .  S
Zr2101     O2104   2.398       .  S
Zr2101     O2109   2.374       .  S
Zr2101     O2111   2.404   1_655  S
O2102      H2158   0.990       .  S
O2102      H2166   0.990       .  S
O2103      C2123   1.284       .  A
O2104      C2125   1.280       .  A
O2105      C2124   1.288       .  A
O2106     Zr2114   2.474       .  S
O2106      C2125   1.291       .  A
O2107      C2124   1.280       .  A
O2108     Zr2116   2.452       .  S
O2108      C2123   1.286       .  A
O2109     Zr2114   2.404       .  S
O2109     Zr2116   2.370       .  S
O2110     Zr2115   2.401   1_655  S
O2110      H2145   0.966       .  S
O2111     Zr2114   2.405   1_455  S
Zr2113     O2138   2.442       .  S
Zr2113     O2132   2.442   1_655  S
Zr2113     O2128   2.392       .  S
Zr2113     O2120   2.408   1_554  S
Zr2113     O2121   2.377   1_655  S
Zr2114     O2133   2.436   1_655  S
Zr2114     O2126   2.433       .  S
Zr2114     O2127   2.487   1_556  S
Zr2114     O2120   2.401       .  S
Zr2114     O2121   2.393   1_656  S
Zr2115     O2139   2.435   1_455  S
Zr2115     O2141   2.477   1_456  S
Zr2115     O2119   2.391   1_455  S
Zr2116     O2143   2.435       .  S
Zr2116     O2118   2.437       .  S
Zr2116     O2120   2.403       .  S
O2117      H2154   0.990       .  S
O2118      H2149   0.990       .  S
O2118      H2163   0.990       .  S
O2120      H2146   0.967   1_556  S
O2122      H2147   0.966       .  S
C2123      C2249   1.489       .  S
C2124      C2238   1.471       .  S
C2125      C2242   1.483       .  S
O2126      H2162   0.990       .  S
O2127      C2129   1.294       .  A
O2128      C2129   1.277       .  A
C2129      C2282   1.483       .  S
O2130     Zr2131   2.434   1_545  S
O2130      H2159   0.990       .  S
Zr2131     O2134   2.437       .  S
Zr2131     O2136   2.415   1_556  S
O2133      H2150   0.990   1_455  S
O2133      H2165   0.990       .  S
O2134      H2151   0.990       .  S
O2135      H2155   0.990   1_556  S
O2135      H2164   0.990       .  S
O2136      C2137   1.279       .  A
C2137      C2302   1.463       .  S
O2138      H2157   0.991       .  S
O2138      H2161   0.990       .  S
O2139      H2153   0.990       .  S
O2139      H2160   0.990       .  S
O2140      C2144   1.278       .  A
O2141      C2144   1.292       .  A
O2143      H2156   0.990   1_556  S
C2144      C2293   1.482       .  S
Zr2167     O2168   2.445       .  S
Zr2167     O2169   2.430       .  S
Zr2167     O2170   2.407       .  S
Zr2167     O2173   2.399       .  S
Zr2167     O2175   2.376       .  S
Zr2167     O2176   2.377       .  S
Zr2167     O2177   2.406       .  S
Zr2167     O2178   2.395       .  S
O2168      H2224   0.990       .  S
O2168      H2232   0.991       .  S
O2169      C2189   1.283       .  A
O2170      C2191   1.277       .  A
O2171     Zr2181   2.454       .  S
O2171      C2190   1.287       .  A
O2172     Zr2180   2.482       .  S
O2172      C2191   1.292       .  A
O2173      C2190   1.278       .  A
O2174     Zr2182   2.436       .  S
O2174      C2189   1.281       .  A
O2175     Zr2180   2.396       .  S
O2175     Zr2182   2.382       .  S
O2176     Zr2181   2.394       .  S
O2176     Zr2182   2.385       .  S
O2176      H2211   0.966       .  S
O2177     Zr2180   2.399       .  S
O2177     Zr2197   2.401       .  S
O2177      H2214   0.967       .  S
O2178     Zr2181   2.386       .  S
O2178     Zr2197   2.390       .  S
Zr2179     O2204   2.439       .  S
Zr2179     O2198   2.448       .  S
Zr2179     O2206   2.468       .  S
Zr2179     O2194   2.390       .  S
Zr2179     O2185   2.402       .  S
Zr2179     O2186   2.419       .  S
Zr2179     O2187   2.387       .  S
Zr2179     O2188   2.379       .  S
Zr2180     O2199   2.436       .  S
Zr2180     O2192   2.435       .  S
Zr2180     O2193   2.454       .  S
Zr2180     O2186   2.415       .  S
Zr2180     O2187   2.399       .  S
Zr2181     O2183   2.436       .  S
Zr2181     O2207   2.439       .  S
Zr2181     O2185   2.390       .  S
Zr2181     O2188   2.401       .  S
Zr2182     O2208   2.436       .  S
Zr2182     O2209   2.436       .  S
Zr2182     O2184   2.441       .  S
Zr2182     O2185   2.409       .  S
Zr2182     O2186   2.396       .  S
O2184      H2215   0.990       .  S
O2184      H2229   0.989       .  S
O2186      H2212   0.964       .  S
O2187     Zr2197   2.364       .  S
O2188     Zr2197   2.378       .  S
O2188      H2213   0.964       .  S
C2189      C2245   1.480       .  S
C2190      C2234   1.474       .  S
C2191      C2253   1.486       .  S
O2192      H2228   0.990       .  S
O2193      C2195   1.288       .  A
O2194      C2195   1.279       .  A
C2195      C2265   1.473       .  S
O2196     Zr2197   2.439       .  S
O2196      H2225   0.990       .  S
Zr2197     O2200   2.440       .  S
Zr2197     O2201   2.440       .  S
Zr2197     O2202   2.440       .  S
O2198      C2203   1.285       .  A
O2199      H2216   0.990       .  S
O2199      H2231   0.990       .  S
O2200      H2217   0.989       .  S
O2201      H2221   0.990       .  S
O2201      H2230   0.990       .  S
O2202      C2203   1.285       .  A
C2203      C2262   1.482       .  S
O2204      H2223   0.990       .  S
O2204      H2227   0.990       .  S
O2205      H2219   0.990       .  S
O2206      C2210   1.288       .  A
O2207      C2210   1.286       .  A
O2208      H2218   0.990       .  S
O2209      H2222   0.990       .  S
C2237      C2238   1.343       .  D
C2237      H2239   1.088       .  S
C2238      H2240   1.086       .  S
C2241      C2242   1.353   1_455  D
C2241      H2243   1.088       .  S
C2242      H2244   1.086       .  S
C2245      C2246   1.344       .  D
C2245      H2247   1.086       .  S
C2246      H2248   1.088       .  S
C2249      C2250   1.358       .  D
C2249      H2251   1.087       .  S
C2250      H2252   1.086       .  S
C2253      C2254   1.354       .  D
C2253      H2255   1.086       .  S
C2254      H2256   1.087       .  S
C2257      C2258   1.342       .  D
C2258      H2260   1.088       .  S
C2261      C2262   1.357       .  D
C2261      H2263   1.086       .  S
C2262      H2264   1.087       .  S
C2265      C2266   1.346       .  D
C2265      H2267   1.086       .  S
C2266      H2268   1.087       .  S
C2269      C2270   1.349       .  D
C2269      H2271   1.086       .  S
C2270      H2272   1.088       .  S
C2273      C2274   1.357       .  D
C2273      H2275   1.087       .  S
C2274      H2276   1.086       .  S
C2277      C2278   1.348       .  D
C2278      H2280   1.086       .  S
C2281      C2282   1.352       .  D
C2281      H2283   1.087       .  S
C2282      H2284   1.086       .  S
C2285      C2286   1.362       .  D
C2285      H2287   1.087       .  S
C2286      H2288   1.086       .  S
C2289      C2290   1.346       .  D
C2289      H2291   1.087       .  S
C2290      H2292   1.086       .  S
C2293      C2294   1.354       .  D
C2293      H2295   1.086       .  S
C2294      H2296   1.087       .  S
C2297      C2298   1.346       .  D
C2297      H2299   1.087       .  S
C2298      H2300   1.086       .  S
C2301      C2302   1.342   1_545  D
C2301      H2303   1.086       .  S
