geometry optimzed in LAMMPS
_audit_creation_date              2020-11-30 
_audit_creation_method            'lammps2cif' 
_symmetry_space_group_name_H-M    'P1' 
_symmetry_Int_Tables_number       1 
_symmetry_cell_setting            triclinic 
loop_ 
_symmetry_equiv_pos_as_xyz 
  x,y,z 
_cell_length_a                    46.15977306 
_cell_length_b                    25.523191934068016 
_cell_length_c                    28.116785187887395 
_cell_angle_alpha                 90.24048228619787 
_cell_angle_beta                  89.88506638467616 
_cell_angle_gamma                 90.30520619824878 
loop_ 
_atom_site_label 
_atom_site_type_symbol 
_atom_site_fract_x 
_atom_site_fract_y 
_atom_site_fract_z 
_atom_site_charge 
N1          N  0.09350419  0.84050909  0.39653284    -0.01800
C2          C  0.11925239  0.81619514  0.38834288     0.00800
C3          C  0.13454144  0.81069228  0.43021138    -0.22100
C4          C  0.11796085  0.83200917  0.46560978    -0.22300
C5          C  0.09304424  0.85019086  0.44440976     0.00700
H6          H  0.15454054  0.78955590  0.43496581     0.14500
H7          H  0.12288015  0.83210976  0.50313390     0.14500
N8          N  0.35901376  0.83922353  0.03550289    -0.01800
C9          C  0.33484626  0.81017223  0.04545298     0.00800
C10         C  0.31815793  0.80373718  0.00500564    -0.22100
C11         C  0.33232119  0.82848264  0.96875978    -0.22300
C12         C  0.35715406  0.84999453  0.98799885     0.00700
H13         H  0.29887385  0.77976378  0.00152845     0.14500
H14         H  0.32603138  0.82835758  0.93171849     0.14500
O15         O  0.01625140  0.96442141  0.79499399    -0.76800
C16         C  0.43321015  0.90412550  0.83297424     0.84200
O17         O  0.01485161  0.78939943  0.72694064    -0.77900
O18         O  0.41325166  0.84617948  0.69092297    -0.79400
O19         O  0.45914670  0.01114479  0.65820908    -0.79200
O20         O  0.02043635  0.00836818  0.72688559    -0.77800
Zn21       Zn  0.49171927  0.90139672  0.78284444     1.55700
O22         O  0.41904469  0.97655409  0.68824976    -0.79200
Cd23       Cd  0.49243369  0.96396165  0.68311593     1.59700
Cd24       Cd  0.48664951  0.83498778  0.68608489     1.59600
O25         O  0.01339375  0.93791532  0.62168147    -0.79200
O26         O  0.47615140  0.90251756  0.71916165    -1.89700
Cd27       Cd  0.43306041  0.90979786  0.72379390     1.59900
O28         O  0.00782201  0.85129747  0.62243610    -0.79200
O29         O  0.41918948  0.91018585  0.79432100    -0.77800
C30         C  0.02474162  0.79812168  0.76860662     0.84700
C31         C  0.02639389  0.00236829  0.77093870     0.84400
O32         O  0.46067123  0.90020580  0.83295567    -0.76800
C33         C  0.43163835  0.01114179  0.66272879     0.85200
O34         O  0.01699291  0.83846018  0.79214300    -0.76900
C35         C  0.01691487  0.89302952  0.60230134     0.85300
C36         C  0.42226274  0.80392336  0.67166135     0.85600
O37         O  0.44919341  0.79286734  0.66915826    -0.79300
N38         N  0.10543673  0.62882702  0.90430916    -0.01800
C39         C  0.08292325  0.66225583  0.89655500     0.00800
C40         C  0.06915133  0.67452302  0.93879835    -0.22100
C41         C  0.08350837  0.64897501  0.97405682    -0.22300
C42         C  0.10552928  0.62115011  0.95252613     0.00700
H43         H  0.05162320  0.70197686  0.94366276     0.14500
H44         H  0.07925614  0.65233861  0.01176872     0.14500
N45         N  0.33978800  0.63593444  0.53560280    -0.01800
C46         C  0.36194895  0.67041799  0.54373722     0.00800
C47         C  0.37611263  0.68253142  0.50182574    -0.22100
C48         C  0.36236012  0.65568184  0.46637439    -0.22300
C49         C  0.34035871  0.62726144  0.48754806     0.00700
H50         H  0.39361831  0.71030818  0.49731244     0.14500
H51         H  0.36710366  0.65823537  0.42886127     0.14500
O52         O  0.18380802  0.50690469  0.29673483    -0.76800
C53         C  0.26807462  0.56627946  0.33146070     0.84200
O54         O  0.18578751  0.67660798  0.22393315    -0.77900
O55         O  0.28743973  0.62441838  0.18661545    -0.79400
O56         O  0.24263635  0.45427973  0.16264007    -0.79200
O57         O  0.18173679  0.45707255  0.23165098    -0.77800
Zn58       Zn  0.20943243  0.56793002  0.28240574     1.55700
O59         O  0.28328583  0.49249664  0.18826261    -0.79200
Cd60       Cd  0.20869159  0.50094670  0.18585547     1.59700
Cd61       Cd  0.21385564  0.63014016  0.18388616     1.59600
O62         O  0.18580469  0.52281625  0.12501812    -0.79200
O63         O  0.22512303  0.56472901  0.21871729    -1.89700
Cd64       Cd  0.26860438  0.56067157  0.22181227     1.59900
O65         O  0.19222187  0.60950752  0.12207827    -0.79200
O66         O  0.28233016  0.56286661  0.29256969    -0.77800
C67         C  0.17715905  0.67096491  0.26671541     0.84700
C68         C  0.17466029  0.46653719  0.27478740     0.84400
O69         O  0.24056754  0.56778539  0.33145253    -0.76800
C70         C  0.27023291  0.45565614  0.16589956     0.85200
O71         O  0.18548908  0.63239467  0.29168207    -0.76900
C72         C  0.18229871  0.56689007  0.10445631     0.85300
C73         C  0.27734323  0.66566757  0.16725124     0.85600
O74         O  0.25018053  0.67449089  0.16513002    -0.79300
N75         N  0.10047320  0.35260192  0.40307428    -0.01800
C76         C  0.07437950  0.32969458  0.39245517     0.00800
C77         C  0.05716380  0.32714269  0.43259839    -0.22100
C78         C  0.07277539  0.34894495  0.46906411    -0.22300
C79         C  0.09931917  0.36395383  0.45057209     0.00700
H80         H  0.03607871  0.30873747  0.43556825     0.14500
H81         H  0.06646143  0.34958560  0.50614736     0.14500
N82         N  0.32322384  0.30446570  0.04049860    -0.01800
C83         C  0.33670811  0.25809391  0.04945197     0.00800
C84         C  0.33664259  0.22668468  0.00940778    -0.22100
C85         C  0.32283579  0.25417065  0.97451068    -0.22300
C86         C  0.31494425  0.30184063  0.99406257     0.00700
H87         H  0.34702444  0.18901018  0.00532500     0.14500
H88         H  0.32044407  0.24213587  0.93776761     0.14500
O89         O  0.24060980  0.39356510  0.83266407    -0.76800
C90         C  0.17416362  0.49646502  0.77890425     0.84200
O91         O  0.19313222  0.28391427  0.72179601    -0.77900
O92         O  0.18225648  0.43925226  0.62904361    -0.79400
O93         O  0.28261169  0.47136528  0.68573451    -0.79200
O94         O  0.28182746  0.41571920  0.79760810    -0.77800
Zn95       Zn  0.20920984  0.39472026  0.78343911     1.55700
O96         O  0.24233715  0.51021942  0.65920742    -0.79200
Cd97       Cd  0.26911145  0.40828198  0.72657227     1.59700
Cd98       Cd  0.21709030  0.33801222  0.68315879     1.59600
O99         O  0.29037806  0.34146497  0.69979167    -0.79200
O100        O  0.22570016  0.40234603  0.72070927    -1.89700
Cd101      Cd  0.20807407  0.46466880  0.68738477     1.59900
O102        O  0.25421950  0.30014767  0.66369999    -0.79200
O103        O  0.18183717  0.50739393  0.73616895    -0.77800
C104        C  0.18276254  0.28677468  0.76369106     0.84700
C105        C  0.26758219  0.40394896  0.83506197     0.84400
O106        O  0.18330448  0.45523332  0.79920996    -0.76800
C107        C  0.27000973  0.50629398  0.66086174     0.85200
O108        O  0.18652262  0.32708991  0.78988027    -0.76900
C109        C  0.28092598  0.30351335  0.67435523     0.85300
C110        C  0.18068651  0.39513464  0.60720277     0.85600
O111        O  0.19451377  0.35561413  0.62244986    -0.79300
N112        N  0.10395130  0.11394783  0.89586346    -0.01800
C113        C  0.13055387  0.13509951  0.88552513     0.00800
C114        C  0.14793088  0.13525785  0.92547930    -0.22100
C115        C  0.13199602  0.11395330  0.96154538    -0.22300
C116        C  0.10495391  0.10214952  0.94327224     0.00700
H117        H  0.16929471  0.15232373  0.92886112     0.14500
H118        H  0.13836793  0.11246341  0.99845850     0.14500
N119        N  0.36565489  0.14394033  0.53498346    -0.01800
C120        C  0.34164905  0.17367986  0.54354714     0.00800
C121        C  0.32810517  0.18647656  0.50148989    -0.22100
C122        C  0.34386066  0.16407518  0.46565231    -0.22300
C123        C  0.36671922  0.13836118  0.48671372     0.00700
H124        H  0.30925194  0.21103063  0.49735469     0.14500
H125        H  0.34000339  0.16835379  0.42793943     0.14500
O126        O  0.46757336  0.08747671  0.32819420    -0.76800
C127        C  0.02836285  0.97400118  0.27063489     0.84200
O128        O  0.01076253  0.19327888  0.21808780    -0.77900
O129        O  0.02142876  0.03552868  0.12209864    -0.79400
O130        O  0.42197199  0.99824629  0.18540854    -0.79200
O131        O  0.42595265  0.05988926  0.29683278    -0.77800
Zn132      Zn  0.49764481  0.07997560  0.27651900     1.55700
O133        O  0.46127313  0.96473935  0.15042964    -0.79200
Cd134      Cd  0.43715760  0.06197284  0.22489761     1.59700
Cd135      Cd  0.48670196  0.13836542  0.17805559     1.59600
O136        O  0.41498376  0.12525645  0.19788596    -0.79200
O137        O  0.47972183  0.07221183  0.21482068    -1.89700
Cd138      Cd  0.49571553  0.00927956  0.17977253     1.59900
O139        O  0.44749595  0.17278888  0.15904427    -0.79200
O140        O  0.02033303  0.96363129  0.22794475    -0.77800
C141        C  0.02412270  0.18778946  0.25750522     0.84700
C142        C  0.44068733  0.07693625  0.33206587     0.84400
O143        O  0.02116104  0.01652207  0.29127351    -0.76800
C144        C  0.43375875  0.96614233  0.15630752     0.85200
O145        O  0.02256559  0.14523160  0.28096044    -0.76900
C146        C  0.42125630  0.16386543  0.17121615     0.85300
C147        C  0.02338688  0.07983553  0.10094949     0.85600
O148        O  0.01009899  0.12010706  0.11687616    -0.79300
C149        C  0.39127348  0.11893650  0.45717173    -0.03700
C150        C  0.40878190  0.15644790  0.43359961    -0.00800
C151        C  0.42623172  0.14169488  0.39465014     0.04200
C152        C  0.42574555  0.08951023  0.37765053    -0.03700
C153        C  0.40920373  0.05150922  0.40214436    -0.00800
C154        C  0.39209407  0.06611934  0.44189376     0.04200
C155        C  0.40669467  0.21152634  0.44635616     0.38900
C156        C  0.40929435  0.99758241  0.38572241     0.38900
C157        C  0.37371878  0.02735361  0.46450258     0.37300
C158        C  0.44273530  0.18151696  0.36945295     0.37300
N159        N  0.35920220  0.99549167  0.48163045    -0.37500
N160        N  0.45578478  0.21329951  0.34929819    -0.37500
N161        N  0.40937170  0.95455032  0.37258468    -0.37000
N162        N  0.40488968  0.25547534  0.45616653    -0.37000
C163        C  0.04214690  0.08585444  0.05705966    -0.03700
C164        C  0.05565932  0.13481233  0.04701311    -0.00800
C165        C  0.07352072  0.14081687  0.00659508     0.04200
C166        C  0.07978327  0.09764046  0.97668525    -0.03700
C167        C  0.06599797  0.04926461  0.98543684    -0.00800
C168        C  0.04690828  0.04349916  0.02484980     0.04200
C169        C  0.05299907  0.17885462  0.07960558     0.38900
C170        C  0.07210126  0.00508779  0.95450417     0.38900
C171        C  0.03220955  0.99379694  0.03178429     0.37300
C172        C  0.08610603  0.19186348  0.99609969     0.37300
N173        N  0.02050505  0.95403292  0.03712406    -0.37500
N174        N  0.09612461  0.23241352  0.98752865    -0.37500
N175        N  0.07700668  0.96994515  0.92967372    -0.37000
N176        N  0.55113588  0.21404632  0.10551420    -0.37000
C177        C  0.30084265  0.26244308  0.65424630    -0.03700
C178        C  0.28916966  0.21320910  0.64035070    -0.00800
C179        C  0.30363604  0.18177033  0.60666152     0.04200
C180        C  0.33138488  0.19615648  0.58966101    -0.03700
C181        C  0.34473184  0.24189269  0.60833206    -0.00800
C182        C  0.32984194  0.27420460  0.64138545     0.04200
C183        C  0.26128942  0.19553893  0.65848353     0.38900
C184        C  0.37170075  0.26074059  0.58808694     0.38900
C185        C  0.34398584  0.32102121  0.65960252     0.37300
C186        C  0.28761588  0.13915929  0.58453351     0.37300
N187        N  0.35551760  0.35804372  0.67433360    -0.37500
N188        N  0.27349985  0.10690519  0.56694648    -0.37500
N189        N  0.39270880  0.27795975  0.57183717    -0.37000
N190        N  0.23896776  0.18111024  0.67208177    -0.37000
C191        C  0.13980282  0.16382148  0.84144557    -0.03700
C192        C  0.16847907  0.15666301  0.82410302    -0.00800
C193        C  0.18215995  0.19588795  0.79668400     0.04200
C194        C  0.16690684  0.24128476  0.78384458    -0.03700
C195        C  0.13739708  0.24562146  0.79575782    -0.00800
C196        C  0.12400747  0.20782233  0.82531764     0.04200
C197        C  0.18513198  0.11106389  0.83769346     0.38900
C198        C  0.12120697  0.29065085  0.77933089     0.38900
C199        C  0.09526118  0.21870565  0.84309753     0.37300
C200        C  0.21290316  0.19210351  0.78625261     0.37300
N201        N  0.07247691  0.23061969  0.85625107    -0.37500
N202        N  0.23753256  0.18930740  0.77897860    -0.37500
N203        N  0.10832223  0.32643445  0.76593758    -0.37000
N204        N  0.19906068  0.07539751  0.84826345    -0.37000
C205        C  0.30541794  0.34592281  0.96312627    -0.03700
C206        C  0.27656408  0.36385189  0.96344173    -0.00800
C207        C  0.26577747  0.39221250  0.92430157     0.04200
C208        C  0.28254232  0.39730355  0.88218841    -0.03700
C209        C  0.31259054  0.38649740  0.88488381    -0.00800
C210        C  0.32396702  0.36171360  0.92557627     0.04200
C211        C  0.25671215  0.34926026  0.00105679     0.38900
C212        C  0.33179639  0.39794433  0.84532101     0.38900
C213        C  0.35453193  0.34855558  0.92715189     0.37300
C214        C  0.23707674  0.41509003  0.92720009     0.37300
N215        N  0.37886149  0.33793005  0.92834568    -0.37500
N216        N  0.21429855  0.43366236  0.92970381    -0.37500
N217        N  0.34729419  0.40698791  0.81395908    -0.37000
N218        N  0.23953310  0.33864476  0.02949039    -0.37000
C219        C  0.39712548  0.19682168  0.15109323    -0.03700
C220        C  0.36811368  0.17767709  0.14997106    -0.00800
C221        C  0.34759678  0.20007714  0.11899339     0.04200
C222        C  0.35475786  0.24459236  0.09160633    -0.03700
C223        C  0.38256521  0.26732995  0.09685792    -0.00800
C224        C  0.40328153  0.24459756  0.12739475     0.04200
C225        C  0.35909634  0.13335722  0.17879566     0.38900
C226        C  0.39177383  0.30931427  0.06570193     0.38900
C227        C  0.43115027  0.27043518  0.13338817     0.37300
C228        C  0.32027751  0.17294689  0.11150895     0.37300
N229        N  0.45329059  0.29130557  0.13809964    -0.37500
N230        N  0.29916599  0.14910778  0.10582944    -0.37500
N231        N  0.40047392  0.34155103  0.04058703    -0.37000
N232        N  0.35167440  0.09809650  0.20163166    -0.37000
C233        C  0.12453617  0.37215184  0.48323743    -0.03700
C234        C  0.13489277  0.42273290  0.49470703    -0.00800
C235        C  0.15394502  0.43048605  0.53386907     0.04200
C236        C  0.16183191  0.38780807  0.56354840    -0.03700
C237        C  0.15129232  0.33690831  0.55123195    -0.00800
C238        C  0.13373601  0.32924241  0.51076185     0.04200
C239        C  0.12500258  0.46714026  0.46732198     0.38900
C240        C  0.15649159  0.29201511  0.58163844     0.38900
C241        C  0.12404250  0.27662409  0.49832428     0.37300
C242        C  0.16512817  0.48265447  0.54340350     0.37300
N243        N  0.11638972  0.23476281  0.48832210    -0.37500
N244        N  0.17403357  0.52434694  0.55092736    -0.37500
N245        N  0.16036055  0.25613261  0.60581854    -0.37000
N246        N  0.11705891  0.50273397  0.44567429    -0.37000
C247        C  0.04051682  0.23245405  0.27934939    -0.03700
C248        C  0.02593747  0.27875373  0.29250986    -0.00800
C249        C  0.03837548  0.31362131  0.32616877     0.04200
C250        C  0.06571402  0.30275936  0.34695924    -0.03700
C251        C  0.08120243  0.25847989  0.33047768    -0.00800
C252        C  0.06905236  0.22483896  0.29560671     0.04200
C253        C  0.49718069  0.28874749  0.27400169     0.38900
C254        C  0.10763667  0.24246241  0.35370991     0.38900
C255        C  0.08591243  0.18193334  0.27633063     0.37300
C256        C  0.02161338  0.35820969  0.34226735     0.37300
N257        N  0.09966096  0.14858350  0.26003839    -0.37500
N258        N  0.00759478  0.39304429  0.35497086    -0.37500
N259        N  0.12830264  0.22700482  0.37197910    -0.37000
N260        N  0.47426646  0.29681550  0.25918452    -0.37000
C261        C  0.15500211  0.43096044  0.30143099    -0.03700
C262        C  0.16657460  0.39110104  0.33028682    -0.00800
C263        C  0.14880401  0.36472614  0.36377323     0.04200
C264        C  0.11929086  0.37836436  0.36884195    -0.03700
C265        C  0.10826246  0.41987841  0.34117221    -0.00800
C266        C  0.12558798  0.44433141  0.30627902     0.04200
C267        C  0.19712801  0.37865964  0.32660018     0.38900
C268        C  0.08037293  0.44220460  0.35286669     0.38900
C269        C  0.11333692  0.48457676  0.27618757     0.37300
C270        C  0.16158593  0.32605325  0.39462124     0.37300
N271        N  0.10347759  0.51634782  0.25193335    -0.37500
N272        N  0.17272112  0.29570030  0.41887332    -0.37500
N273        N  0.05871088  0.46196179  0.36297900    -0.37000
N274        N  0.22152600  0.36895106  0.32358277    -0.37000
C275        C  0.28725460  0.41409262  0.14050818    -0.03700
C276        C  0.27608891  0.36247285  0.13676052    -0.00800
C277        C  0.28875159  0.32608264  0.10507398     0.04200
C278        C  0.31232054  0.34085998  0.07584798    -0.03700
C279        C  0.32376814  0.39193993  0.08006777    -0.00800
C280        C  0.31261864  0.42706265  0.11449137     0.04200
C281        C  0.25148735  0.34640429  0.16560519     0.38900
C282        C  0.34528077  0.41030775  0.04651161     0.38900
C283        C  0.32771756  0.47605688  0.12322752     0.37300
C284        C  0.27484573  0.27569286  0.09794737     0.37300
N285        N  0.34055416  0.51412908  0.13125535    -0.37500
N286        N  0.26236130  0.23689738  0.09155457    -0.37500
N287        N  0.36179993  0.42698540  0.01943856    -0.37000
N288        N  0.23185393  0.33355930  0.18850970    -0.37000
C289        C  0.28856479  0.54106690  0.63056008    -0.03700
C290        C  0.28545011  0.59611947  0.63096868    -0.00800
C291        C  0.30321232  0.62809884  0.60159964     0.04200
C292        C  0.32373336  0.60518261  0.57040630    -0.03700
C293        C  0.32794779  0.55047547  0.57240504    -0.00800
C294        C  0.31012364  0.51856313  0.60116814     0.04200
C295        C  0.26428903  0.62009537  0.66224442     0.38900
C296        C  0.35208000  0.52707514  0.54732570     0.38900
C297        C  0.31326012  0.46203233  0.59867663     0.37300
C298        C  0.30016883  0.68437898  0.60425739     0.37300
N299        N  0.31560301  0.41697853  0.59633172    -0.37500
N300        N  0.29679754  0.72911848  0.60775979    -0.37500
N301        N  0.37171449  0.50752113  0.52896566    -0.37000
N302        N  0.24745051  0.63952718  0.68711952    -0.37000
C303        C  0.28381994  0.57149296  0.37780600    -0.03700
C304        C  0.27274496  0.60408138  0.41458416    -0.00800
C305        C  0.29013057  0.61750582  0.45416101     0.04200
C306        C  0.31871581  0.59847671  0.45774586    -0.03700
C307        C  0.32870694  0.56207523  0.42325665    -0.00800
C308        C  0.31115867  0.54787346  0.38416756     0.04200
C309        C  0.24435962  0.62798682  0.41024658     0.38900
C310        C  0.35816725  0.54262028  0.42528352     0.38900
C311        C  0.32168253  0.50962297  0.34997558     0.37300
C312        C  0.27948393  0.65646693  0.48737764     0.37300
N313        N  0.33012481  0.47907785  0.32281779    -0.37500
N314        N  0.26981065  0.68823588  0.51208027    -0.37500
N315        N  0.38174981  0.52745410  0.42582452    -0.37000
N316        N  0.22179961  0.64722186  0.40696364    -0.37000
C317        C  0.12071268  0.59715743  0.86908785    -0.03700
C318        C  0.13950858  0.61947854  0.83474759    -0.00800
C319        C  0.15564313  0.58702059  0.80327495     0.04200
C320        C  0.15414220  0.53168699  0.80687658    -0.03700
C321        C  0.13396682  0.50972791  0.83949516    -0.00800
C322        C  0.11674856  0.54228310  0.86873084     0.04200
C323        C  0.14300837  0.67568498  0.83172129     0.38900
C324        C  0.13029037  0.45331722  0.84293444     0.38900
C325        C  0.09327303  0.51925273  0.89590593     0.37300
C326        C  0.17432978  0.61107630  0.76801806     0.37300
N327        N  0.07410058  0.49996847  0.91592065    -0.37500
N328        N  0.18891956  0.63062680  0.73960623    -0.37500
N329        N  0.12745508  0.40841278  0.84639792    -0.37000
N330        N  0.14679118  0.72031120  0.82781483    -0.37000
C331        C  0.12811041  0.59479691  0.98201300    -0.03700
C332        C  0.11937968  0.55827938  0.01729320    -0.00800
C333        C  0.13811225  0.54528889  0.05513630     0.04200
C334        C  0.16547852  0.56992281  0.05916911    -0.03700
C335        C  0.17511663  0.60303166  0.02205966    -0.00800
C336        C  0.15645577  0.61595004  0.98409682     0.04200
C337        C  0.08997356  0.53786122  0.01774572     0.38900
C338        C  0.20407564  0.62549524  0.02378158     0.38900
C339        C  0.16539162  0.65648013  0.95120169     0.35300
C340        C  0.12808075  0.50982713  0.09199039     0.37300
N341        N  0.17317744  0.68973240  0.92637237    -0.37500
N342        N  0.12003639  0.48148326  0.12127030    -0.37500
N343        N  0.22713894  0.64343986  0.02527364    -0.37000
N344        N  0.06646216  0.52195305  0.01925771    -0.37000
C345        C  0.40090019  0.76841506  0.64799710    -0.03700
C346        C  0.38087699  0.78943093  0.61528378    -0.00800
C347        C  0.36454533  0.75587130  0.58573357     0.04200
C348        C  0.36848130  0.70096330  0.58758654    -0.03700
C349        C  0.38641543  0.67974787  0.62309586    -0.00800
C350        C  0.40234086  0.71340716  0.65363557     0.04200
C351        C  0.37930568  0.84559940  0.60783830     0.38900
C352        C  0.39039628  0.62357636  0.62565618     0.38900
C353        C  0.42078648  0.69143821  0.69005469     0.37300
C354        C  0.34561568  0.77822089  0.54993965     0.37300
N355        N  0.43538768  0.67392078  0.71930814    -0.37500
N356        N  0.33054149  0.79593727  0.52143518    -0.37500
N357        N  0.39382959  0.57878649  0.62798063    -0.37000
N358        N  0.37818494  0.89023735  0.60114657    -0.37000
C359        C  0.04561763  0.76115603  0.79160885    -0.03700
C360        C  0.06678861  0.78131791  0.82333464    -0.00800
C361        C  0.08149637  0.74763088  0.85446712     0.04200
C362        C  0.07635629  0.69298073  0.85301708    -0.03700
C363        C  0.05826235  0.67207615  0.81726905    -0.00800
C364        C  0.04294351  0.70597716  0.78646699     0.04200
C365        C  0.07307736  0.83712665  0.82518103     0.38900
C366        C  0.05359926  0.61595017  0.81475413     0.38900
C367        C  0.52315280  0.68380140  0.75178437     0.37300
C368        C  0.10043303  0.76978632  0.89070231     0.37300
N369        N  0.50749281  0.66591133  0.72394713    -0.37500
N370        N  0.11544025  0.78737035  0.91964869    -0.37500
N371        N  0.04981502  0.57114811  0.81263029    -0.37000
N372        N  0.07814361  0.88154399  0.82702862    -0.37000
C373        C  0.41380155  0.05025404  0.63492319    -0.03700
C374        C  0.42702515  0.09399783  0.61197605    -0.00800
C375        C  0.41104727  0.12569155  0.58014532     0.04200
C376        C  0.38188606  0.11384574  0.56957391    -0.03700
C377        C  0.36871481  0.07071589  0.59229917    -0.00800
C378        C  0.38374995  0.04143041  0.62680661     0.04200
C379        C  0.45708982  0.10760005  0.62114194     0.38900
C380        C  0.34070125  0.05212940  0.57639454     0.38900
C381        C  0.36764973  0.00227865  0.65345490     0.37300
C382        C  0.42524836  0.16972706  0.55761706     0.37300
N383        N  0.35447968  0.97176802  0.67499664    -0.37500
N384        N  0.43791076  0.20429925  0.54089345    -0.37500
N385        N  0.31908607  0.03408133  0.56335740    -0.37000
N386        N  0.48107601  0.11860632  0.62808835    -0.37000
C387        C  0.04652013  0.03853159  0.79602090    -0.03700
C388        C  0.07633233  0.02745104  0.79580291    -0.00800
C389        C  0.09485361  0.05129003  0.82951601     0.04200
C390        C  0.08434452  0.09005569  0.86139703    -0.03700
C391        C  0.05437248  0.10179018  0.86080758    -0.00800
C392        C  0.03559786  0.07581109  0.82851631     0.04200
C393        C  0.08764016  0.98885751  0.76259558     0.38900
C394        C  0.04226259  0.13870637  0.89446217     0.38900
C395        C  0.50471962  0.08609657  0.82965095     0.37300
C396        C  0.12365964  0.03027230  0.83545496     0.37300
N397        N  0.48007185  0.09412168  0.83051996    -0.37500
N398        N  0.14610432  0.01110388  0.84025237    -0.37500
N399        N  0.03180908  0.16802238  0.92081883    -0.37000
N400        N  0.09657307  0.95817031  0.73600563    -0.37000
C401        C  0.37646828  0.86900453  0.06925105    -0.03700
C402        C  0.39891832  0.84565357  0.09567793    -0.00800
C403        C  0.41822854  0.87709565  0.12304911     0.04200
C404        C  0.41430184  0.93196701  0.12646821    -0.03700
C405        C  0.39092818  0.95478003  0.10159210    -0.00800
C406        C  0.37188736  0.92340067  0.07426750     0.04200
C407        C  0.40154409  0.78925382  0.09656834     0.38900
C408        C  0.38734684  0.01123281  0.10148605     0.38900
C409        C  0.34633421  0.94675723  0.05359507     0.37300
C410        C  0.44214143  0.85272911  0.14756920     0.37300
N411        N  0.32559305  0.96569860  0.03851840    -0.37500
N412        N  0.46136365  0.83282824  0.16649865    -0.37500
N413        N  0.38462705  0.05625193  0.10057274    -0.37000
N414        N  0.40390866  0.74420451  0.09863142    -0.37000
C415        C  0.41699617  0.89832760  0.87877187    -0.03700
C416        C  0.42499953  0.85906125  0.91164574    -0.00800
C417        C  0.40639358  0.84579413  0.94975109     0.04200
C418        C  0.38015130  0.87305516  0.95687771    -0.03700
C419        C  0.37318991  0.91476364  0.92585506    -0.00800
C420        C  0.39170803  0.92780526  0.88757167     0.04200
C421        C  0.45125336  0.82886711  0.90432283     0.38900
C422        C  0.34571191  0.94164897  0.93049460     0.38900
C423        C  0.38445501  0.97137500  0.85685067     0.37300
C424        C  0.41253524  0.79891057  0.97669372     0.37300
N425        N  0.37868335  0.00621154  0.83247325    -0.37500
N426        N  0.41810375  0.76036665  0.99602596    -0.37500
N427        N  0.32367321  0.96291766  0.93288372    -0.37000
N428        N  0.47217935  0.80481823  0.89865942    -0.37000
C429        C  0.32974556  0.77496417  0.08686761    -0.03700
C430        C  0.33183338  0.72036556  0.07856613    -0.00800
C431        C  0.31495516  0.68484816  0.10522729     0.04200
C432        C  0.29769683  0.70285430  0.14336255    -0.03700
C433        C  0.29824557  0.75679985  0.15527397    -0.00800
C434        C  0.31391461  0.79284564  0.12666040     0.04200
C435        C  0.34922838  0.70100580  0.03918993     0.38900
C436        C  0.28177912  0.77543001  0.19582782     0.38900
C437        C  0.31230548  0.84852622  0.13636814     0.37300
C438        C  0.31210941  0.63114539  0.08874533     0.37300
N439        N  0.31098655  0.89296015  0.14437108    -0.37500
N440        N  0.30912630  0.58899494  0.07423143    -0.37500
N441        N  0.26869710  0.79028931  0.22829677    -0.37000
N442        N  0.36303713  0.68534760  0.00786763    -0.37000
C443        C  0.07847337  0.87153583  0.36134813    -0.03700
C444        C  0.08672643  0.92421784  0.35467574    -0.00800
C445        C  0.07091009  0.95689614  0.32407990     0.04200
C446        C  0.04697768  0.93697119  0.29814385    -0.03700
C447        C  0.04023636  0.88292781  0.30171479    -0.00800
C448        C  0.05632935  0.85016676  0.33253794     0.04200
C449        C  0.11292537  0.94387727  0.37688217     0.38900
C450        C  0.01581954  0.86140108  0.27582286     0.38900
C451        C  0.05084968  0.79434967  0.33286688     0.37300
C452        C  0.07958490  0.01129894  0.31942031     0.37300
N453        N  0.04636402  0.74971952  0.33143385    -0.37500
N454        N  0.58656746  0.05472802  0.31643402    -0.37500
N455        N  0.99619765  0.84395005  0.25560300    -0.37000
N456        N  0.13439831  0.95939614  0.39291504    -0.37000
C457        C  0.03262351  0.88870867  0.55542979    -0.03700
C458        C  0.05532444  0.92399734  0.54363428    -0.00800
C459        C  0.07309833  0.91468287  0.50347600     0.04200
C460        C  0.06848238  0.87035583  0.47400085    -0.03700
C461        C  0.04429241  0.83773539  0.48332849    -0.00800
C462        C  0.02626739  0.84721896  0.52325119     0.04200
C463        C  0.06203025  0.96824418  0.57439523     0.38900
C464        C  0.03923013  0.79107585  0.45502256     0.38900
C465        C  0.00142011  0.81320472  0.53140329     0.37300
C466        C  0.09766118  0.94905651  0.49505243     0.37300
N467        N  0.48170007  0.78590448  0.53780703    -0.37500
N468        N  0.11712829  0.97726106  0.49014664    -0.37500
N469        N  0.03422563  0.75298079  0.43413497    -0.37000
N470        N  0.06746812  0.00361795  0.59873870    -0.37000
C471        C  0.15698607  0.70963188  0.28907597    -0.03700
C472        C  0.16020616  0.76423934  0.28153867    -0.00800
C473        C  0.14489368  0.80039402  0.31040341     0.04200
C474        C  0.12635632  0.78227492  0.34685773    -0.03700
C475        C  0.12108980  0.72794773  0.35118842    -0.00800
C476        C  0.13590019  0.69195694  0.32207366     0.04200
C477        C  0.18082217  0.78361842  0.24671058     0.38900
C478        C  0.10268077  0.70839305  0.38920255     0.38900
C479        C  0.13010632  0.63637160  0.32791777     0.37300
C480        C  0.14981699  0.85607389  0.30441934     0.37300
N481        N  0.12551074  0.59219452  0.33334884    -0.37500
N482        N  0.15419035  0.90025091  0.29849797    -0.37500
N483        N  0.08853196  0.69209950  0.41981695    -0.37000
N484        N  0.19723218  0.79922118  0.21892650    -0.37000
N485        N  0.59350466  0.84051021  0.39653280    -0.01800
C486        C  0.61925311  0.81619643  0.38834466     0.00800
C487        C  0.63454189  0.81069682  0.43021373    -0.22100
C488        C  0.61796093  0.83201551  0.46561060    -0.22300
C489        C  0.59304428  0.85019504  0.44440921     0.00700
H490        H  0.65454136  0.78956089  0.43496974     0.14500
H491        H  0.62287990  0.83211840  0.50313519     0.14500
N492        N  0.85901645  0.83921689  0.03550510    -0.01800
C493        C  0.83485025  0.81016076  0.04545303     0.00800
C494        C  0.81816403  0.80372124  0.00500387    -0.22100
C495        C  0.83232722  0.82846878  0.96875919    -0.22300
C496        C  0.85715793  0.84998633  0.98800053     0.00700
H497        H  0.79888135  0.77974478  0.00152519     0.14500
H498        H  0.82603878  0.82834190  0.93171712     0.14500
O499        O  0.51625085  0.96442158  0.79499685    -0.76800
C500        C  0.93321123  0.90412715  0.83297592     0.84200
O501        O  0.51485374  0.78940018  0.72694127    -0.77900
O502        O  0.91324989  0.84618213  0.69092521    -0.79400
O503        O  0.95914514  0.01114419  0.65820607    -0.79200
O504        O  0.52043811  0.00836635  0.72688777    -0.77800
Zn505      Zn  0.99171941  0.90139705  0.78284317     1.55700
O506        O  0.91904338  0.97655667  0.68825061    -0.79200
Cd507      Cd  0.99243232  0.96396207  0.68311421     1.59700
Cd508      Cd  0.98664769  0.83498819  0.68608465     1.59600
O509        O  0.51339438  0.93791616  0.62168210    -0.79200
O510        O  0.97615034  0.90251850  0.71916113    -1.89700
Cd511      Cd  0.93305941  0.90980033  0.72379527     1.59900
O512        O  0.50782348  0.85129824  0.62243627    -0.79200
O513        O  0.91918979  0.91018806  0.79432344    -0.77800
C514        C  0.52474292  0.79812285  0.76860772     0.84700
C515        C  0.52639446  0.00236744  0.77094144     0.84400
O516        O  0.96067228  0.90020723  0.83295569    -0.76800
C517        C  0.93163689  0.01114266  0.66272742     0.85200
O518        O  0.51699323  0.83846071  0.79214415    -0.76900
C519        C  0.51691562  0.89303071  0.60230137     0.85300
C520        C  0.92226045  0.80392599  0.67166292     0.85600
O521        O  0.94919101  0.79286934  0.66915869    -0.79300
N522        N  0.60543577  0.62883228  0.90431658    -0.01800
C523        C  0.58292418  0.66226562  0.89656372     0.00800
C524        C  0.56915391  0.67453602  0.93880781    -0.22100
C525        C  0.58351023  0.64898533  0.97406542    -0.22300
C526        C  0.60552889  0.62115568  0.95253362     0.00700
H527        H  0.55162741  0.70199232  0.94367292     0.14500
H528        H  0.57925883  0.65234980  0.01177783     0.14500
N529        N  0.83978547  0.63593911  0.53560345    -0.01800
C530        C  0.86194605  0.67042346  0.54373755     0.00800
C531        C  0.87610956  0.68253710  0.50182587    -0.22100
C532        C  0.86235723  0.65568658  0.46637480    -0.22300
C533        C  0.84035618  0.62726566  0.48754881     0.00700
H534        H  0.89361484  0.71031391  0.49731237     0.14500
H535        H  0.86710072  0.65823980  0.42886154     0.14500
O536        O  0.68380500  0.50689866  0.29673659    -0.76800
C537        C  0.76807206  0.56627585  0.33146424     0.84200
O538        O  0.68578606  0.67660264  0.22393670    -0.77900
O539        O  0.78743759  0.62441416  0.18661723    -0.79400
O540        O  0.74263567  0.45427439  0.16264423    -0.79200
O541        O  0.68173582  0.45706499  0.23165357    -0.77800
Zn542      Zn  0.70943003  0.56792372  0.28240872     1.55700
O543        O  0.78328428  0.49249300  0.18826857    -0.79200
Cd544      Cd  0.70869028  0.50094024  0.18585883     1.59700
Cd545      Cd  0.71385366  0.63013446  0.18388895     1.59600
O546        O  0.68580273  0.52280850  0.12502183    -0.79200
O547        O  0.72512100  0.56472359  0.21872048    -1.89700
Cd548      Cd  0.76860229  0.56066827  0.22181594     1.59900
O549        O  0.69221922  0.60950014  0.12208239    -0.79200
O550        O  0.78232776  0.56286526  0.29257325    -0.77800
C551        C  0.67715773  0.67095972  0.26671908     0.84700
C552        C  0.67465817  0.46653039  0.27478929     0.84400
O553        O  0.74056491  0.56777878  0.33145615    -0.76800
C554        C  0.77023216  0.45565200  0.16590502     0.85200
O555        O  0.68548739  0.63238896  0.29168540    -0.76900
C556        C  0.68229631  0.56688246  0.10446052     0.85300
C557        C  0.77734110  0.66566251  0.16725152     0.85600
O558        O  0.75017834  0.67448536  0.16513011    -0.79300
N559        N  0.60047466  0.35259301  0.40307935    -0.01800
C560        C  0.57438163  0.32968284  0.39246106     0.00800
C561        C  0.55716668  0.32712786  0.43260510    -0.22100
C562        C  0.57277816  0.34893152  0.46907033    -0.22300
C563        C  0.59932099  0.36394422  0.45057733     0.00700
H564        H  0.53608249  0.30872077  0.43557549     0.14500
H565        H  0.56646467  0.34957109  0.50615414     0.14500
N566        N  0.82322540  0.30447205  0.04049779    -0.01800
C567        C  0.83671119  0.25810093  0.04944773     0.00800
C568        C  0.83664754  0.22669603  0.00940080    -0.22100
C569        C  0.82284035  0.25418394  0.97450545    -0.22300
C570        C  0.81494677  0.30185096  0.99406118     0.00700
H571        H  0.84703044  0.18902241  0.00531544     0.14500
H572        H  0.82044950  0.24215269  0.93776154     0.14500
O573        O  0.74060953  0.39357952  0.83267050    -0.76800
C574        C  0.67416137  0.49647268  0.77890775     0.84200
O575        O  0.69313281  0.28392203  0.72180595    -0.77900
O576        O  0.68225535  0.43925506  0.62904851    -0.79400
O577        O  0.78261005  0.47137311  0.68573779    -0.79200
O578        O  0.78182712  0.41573085  0.79761281    -0.77800
Zn579      Zn  0.70920936  0.39473002  0.78344580     1.55700
O580        O  0.74233499  0.51022572  0.65921074    -0.79200
Cd581      Cd  0.76911091  0.40829061  0.72657731     1.59700
Cd582      Cd  0.71709029  0.33801872  0.68316716     1.59600
O583        O  0.79037829  0.34147346  0.69979745    -0.79200
O584        O  0.72569952  0.40235399  0.72071557    -1.89700
Cd585      Cd  0.70807239  0.46467488  0.68738934     1.59900
O586        O  0.75421946  0.30015384  0.66370885    -0.79200
O587        O  0.68183473  0.50740085  0.73617218    -0.77800
C588        C  0.68276346  0.28678268  0.76370115     0.84700
C589        C  0.76758196  0.40396334  0.83506752     0.84400
O590        O  0.68330301  0.45524215  0.79921439    -0.76800
C591        C  0.77000761  0.50630085  0.66086458     0.85200
O592        O  0.68652317  0.32709847  0.78988982    -0.76900
C593        C  0.78092611  0.30352061  0.67436255     0.85300
C594        C  0.68068613  0.39513655  0.60720900     0.85600
O595        O  0.69451375  0.35561738  0.62245783    -0.79300
N596        N  0.60395350  0.11394523  0.89586531    -0.01800
C597        C  0.63055597  0.13509800  0.88552786     0.00800
C598        C  0.64793317  0.13525336  0.92548191    -0.22100
C599        C  0.63199872  0.11394558  0.96154658    -0.22300
C600        C  0.60495652  0.10214345  0.94327337     0.00700
H601        H  0.66929695  0.15231943  0.92886472     0.14500
H602        H  0.63837091  0.11245330  0.99846023     0.14500
N603        N  0.86565184  0.14394497  0.53498660    -0.01800
C604        C  0.84164633  0.17368517  0.54355149     0.00800
C605        C  0.82810149  0.18648121  0.50149479    -0.22100
C606        C  0.84385614  0.16407878  0.46565660    -0.22300
C607        C  0.86671510  0.13836486  0.48671678     0.00700
H608        H  0.80924854  0.21103509  0.49736044     0.14500
H609        H  0.83999796  0.16835691  0.42794352     0.14500
O610        O  0.96757008  0.08748019  0.32819685    -0.76800
C611        C  0.52836365  0.97399686  0.27063060     0.84200
O612        O  0.51076510  0.19327625  0.21808693    -0.77900
O613        O  0.52142918  0.03552486  0.12209688    -0.79400
O614        O  0.92197192  0.99824411  0.18540986    -0.79200
O615        O  0.92595005  0.05989024  0.29683483    -0.77800
Zn616      Zn  0.99764240  0.07997890  0.27652220     1.55700
O617        O  0.96127405  0.96473893  0.15043237    -0.79200
Cd618      Cd  0.93715578  0.06197243  0.22489932     1.59700
Cd619      Cd  0.98669976  0.13836702  0.17805713     1.59600
O620        O  0.91498110  0.12525487  0.19788654    -0.79200
O621        O  0.97972014  0.07221362  0.21482303    -1.89700
Cd622      Cd  0.99571543  0.00928235  0.17977500     1.59900
O623        O  0.94749331  0.17278873  0.15904588    -0.79200
O624        O  0.52033284  0.96362650  0.22794108    -0.77800
C625        C  0.52412551  0.18778561  0.25750398     0.84700
C626        C  0.94068408  0.07693885  0.33206811     0.84400
O627        O  0.52116271  0.01651830  0.29126895    -0.76800
C628        C  0.93375959  0.96614025  0.15630961     0.85200
O629        O  0.52256859  0.14522707  0.28095812    -0.76900
C630        C  0.92125364  0.16386413  0.17121698     0.85300
C631        C  0.52338824  0.07983189  0.10094840     0.85600
O632        O  0.51010106  0.12010417  0.11687513    -0.79300
C633        C  0.89126900  0.11894014  0.45717349    -0.03700
C634        C  0.90877741  0.15645138  0.43360109    -0.00800
C635        C  0.92622785  0.14169796  0.39465235     0.04200
C636        C  0.92574162  0.08951331  0.37765250    -0.03700
C637        C  0.90919945  0.05151260  0.40214625    -0.00800
C638        C  0.89208983  0.06612287  0.44189583     0.04200
C639        C  0.90668984  0.21152992  0.44635705     0.38900
C640        C  0.90929005  0.99758571  0.38572457     0.38900
C641        C  0.87371534  0.02735685  0.46450596     0.37300
C642        C  0.94273273  0.18151954  0.36945675     0.37300
N643        N  0.85919952  0.99549467  0.48163523    -0.37500
N644        N  0.95578344  0.21330163  0.34930350    -0.37500
N645        N  0.90936736  0.95455354  0.37258708    -0.37000
N646        N  0.90488447  0.25547896  0.45616705    -0.37000
C647        C  0.54214878  0.08585020  0.05705946    -0.03700
C648        C  0.55566289  0.13480698  0.04701498    -0.00800
C649        C  0.57352466  0.14081122  0.00659751     0.04200
C650        C  0.57978613  0.09763511  0.97668669    -0.03700
C651        C  0.56599939  0.04926023  0.98543653    -0.00800
C652        C  0.54690906  0.04349545  0.02484863     0.04200
C653        C  0.55300396  0.17884818  0.07960900     0.38900
C654        C  0.57210166  0.00508386  0.95450276     0.38900
C655        C  0.53220844  0.99379469  0.03178111     0.37300
C656        C  0.58611114  0.19185723  0.99610344     0.37300
N657        N  0.52050240  0.95403187  0.03711924    -0.37500
N658        N  0.59613058  0.23240685  0.98753347    -0.37500
N659        N  0.57700628  0.96994163  0.92967139    -0.37000
N660        N  0.05112997  0.21405374  0.10550947    -0.37000
C661        C  0.80084266  0.26245013  0.65425330    -0.03700
C662        C  0.78916959  0.21321564  0.64035950    -0.00800
C663        C  0.80363478  0.18177704  0.60666870     0.04200
C664        C  0.83138317  0.19616291  0.58966583    -0.03700
C665        C  0.84473056  0.24189946  0.60833559    -0.00800
C666        C  0.82984146  0.27421188  0.64138973     0.04200
C667        C  0.76129052  0.19554461  0.65849646     0.38900
C668        C  0.87169905  0.26074693  0.58808868     0.38900
C669        C  0.84398562  0.32102898  0.65960517     0.37300
C670        C  0.78761363  0.13916662  0.58454170     0.37300
N671        N  0.85551753  0.35805191  0.67433509    -0.37500
N672        N  0.77349678  0.10691316  0.56695549    -0.37500
N673        N  0.89270681  0.27796562  0.57183755    -0.37000
N674        N  0.73896984  0.18111525  0.67209849    -0.37000
C675        C  0.63980522  0.16382245  0.84144968    -0.03700
C676        C  0.66848259  0.15666851  0.82411042    -0.00800
C677        C  0.68216335  0.19589678  0.79669533     0.04200
C678        C  0.66690894  0.24129177  0.78385506    -0.03700
C679        C  0.63739835  0.24562384  0.79576405    -0.00800
C680        C  0.62400870  0.20782143  0.82532046     0.04200
C681        C  0.68513631  0.11106985  0.83769954     0.38900
C682        C  0.62120711  0.29065123  0.77933562     0.38900
C683        C  0.59526016  0.21869831  0.84309366     0.37300
C684        C  0.71290733  0.19211727  0.78626835     0.37300
N685        N  0.57247375  0.23060750  0.85624078    -0.37500
N686        N  0.73753726  0.18932542  0.77899769    -0.37500
N687        N  0.60832142  0.32643316  0.76594111    -0.37000
N688        N  0.69906543  0.07540366  0.84826859    -0.37000
C689        C  0.80541925  0.34593514  0.96312835    -0.03700
C690        C  0.77656489  0.36386160  0.96344495    -0.00800
C691        C  0.76577775  0.39222492  0.92430685     0.04200
C692        C  0.78254243  0.39731987  0.88219391    -0.03700
C693        C  0.81259105  0.38651739  0.88488914    -0.00800
C694        C  0.82396811  0.36173139  0.92557999     0.04200
C695        C  0.75671309  0.34926400  0.00105830     0.38900
C696        C  0.83179685  0.39797095  0.84532789     0.38900
C697        C  0.85453346  0.34857651  0.92715537     0.37300
C698        C  0.73707679  0.41510126  0.92720714     0.37300
N699        N  0.87886333  0.33795329  0.92834952    -0.37500
N700        N  0.71429849  0.43367293  0.92971231    -0.37500
N701        N  0.84729464  0.40701989  0.81396723    -0.37000
N702        N  0.73953423  0.33864335  0.02949062    -0.37000
C703        C  0.89712298  0.19681994  0.15109344    -0.03700
C704        C  0.86811229  0.17767084  0.14996172    -0.00800
C705        C  0.84759703  0.20007313  0.11898252     0.04200
C706        C  0.85475828  0.24459467  0.09160391    -0.03700
C707        C  0.88256404  0.26733589  0.09686546    -0.00800
C708        C  0.90327884  0.24460098  0.12740352     0.04200
C709        C  0.85909477  0.13334415  0.17877749     0.38900
C710        C  0.89177335  0.30932763  0.06571827     0.38900
C711        C  0.93114595  0.27044147  0.13340734     0.37300
C712        C  0.82027986  0.17293953  0.11148703     0.37300
N713        N  0.95328497  0.29131407  0.13812706    -0.37500
N714        N  0.79917001  0.14909841  0.10579775    -0.37500
N715        N  0.90047434  0.34157058  0.04061071    -0.37000
N716        N  0.85167263  0.09807810  0.20160657    -0.37000
C717        C  0.62453808  0.37214600  0.48324171    -0.03700
C718        C  0.63489156  0.42272874  0.49471275    -0.00800
C719        C  0.65394318  0.43048452  0.53387522     0.04200
C720        C  0.66183229  0.38780736  0.56355395    -0.03700
C721        C  0.65129575  0.33690586  0.55123606    -0.00800
C722        C  0.63374036  0.32923764  0.51076520     0.04200
C723        C  0.62499865  0.46713502  0.46732893     0.38900
C724        C  0.65649704  0.29201278  0.58164172     0.38900
C725        C  0.62405000  0.27661785  0.49832618     0.37300
C726        C  0.66512319  0.48265487  0.54341083     0.37300
N727        N  0.61639978  0.23475543  0.48832266    -0.37500
N728        N  0.67402611  0.52434885  0.55093568    -0.37500
N729        N  0.66036754  0.25613027  0.60582114    -0.37000
N730        N  0.61705285  0.50272799  0.44568238    -0.37000
C731        C  0.54051924  0.23244967  0.27934960    -0.03700
C732        C  0.52593890  0.27874679  0.29251451    -0.00800
C733        C  0.53837647  0.31361191  0.32617591     0.04200
C734        C  0.56571571  0.30275031  0.34696406    -0.03700
C735        C  0.58120499  0.25847370  0.33047827    -0.00800
C736        C  0.56905519  0.22483514  0.29560517     0.04200
C737        C  0.99717978  0.28875501  0.27399516     0.38900
C738        C  0.60763989  0.24245585  0.35370824     0.38900
C739        C  0.58591584  0.18193216  0.27632551     0.37300
C740        C  0.52161326  0.35819678  0.34227948     0.37300
N741        N  0.59966483  0.14858444  0.26003070    -0.37500
N742        N  0.50759388  0.39302851  0.35498726    -0.37500
N743        N  0.62830640  0.22699764  0.37197535    -0.37000
N744        N  0.97426596  0.29682368  0.25917662    -0.37000
C745        C  0.65500029  0.43095294  0.30143257    -0.03700
C746        C  0.66657323  0.39109082  0.33028471    -0.00800
C747        C  0.64880406  0.36471731  0.36377395     0.04200
C748        C  0.61929131  0.37835661  0.36884637    -0.03700
C749        C  0.60826200  0.41987111  0.34117822    -0.00800
C750        C  0.62558659  0.44432539  0.30628454     0.04200
C751        C  0.69712567  0.37864433  0.32659051     0.38900
C752        C  0.58037218  0.44219536  0.35287402     0.38900
C753        C  0.61333491  0.48457254  0.27619575     0.37300
C754        C  0.66158725  0.32604522  0.39462132     0.37300
N755        N  0.60347503  0.51634493  0.25194359    -0.37500
N756        N  0.67272362  0.29569313  0.41887284    -0.37500
N757        N  0.55870971  0.46195063  0.36298705    -0.37000
N758        N  0.72152279  0.36893112  0.32356641    -0.37000
C759        C  0.78725491  0.41409020  0.14051361    -0.03700
C760        C  0.77609009  0.36247007  0.13676371    -0.00800
C761        C  0.78875330  0.32608247  0.10507527     0.04200
C762        C  0.81232164  0.34086325  0.07584932    -0.03700
C763        C  0.82376838  0.39194357  0.08007166    -0.00800
C764        C  0.81261888  0.42706292  0.11449789     0.04200
C765        C  0.75148916  0.34639845  0.16560839     0.38900
C766        C  0.84527990  0.41031562  0.04651550     0.38900
C767        C  0.82771798  0.47605603  0.12323845     0.37300
C768        C  0.77484859  0.27569196  0.09794707     0.37300
N769        N  0.84055468  0.51412715  0.13127018    -0.37500
N770        N  0.76236501  0.23689575  0.09155357    -0.37500
N771        N  0.86179815  0.42699669  0.01944269    -0.37000
N772        N  0.73185632  0.33355088  0.18851307    -0.37000
C773        C  0.78856221  0.54107321  0.63056181    -0.03700
C774        C  0.78544773  0.59612580  0.63097013    -0.00800
C775        C  0.80320969  0.62810463  0.60160022     0.04200
C776        C  0.82373071  0.60518782  0.57040715    -0.03700
C777        C  0.82794495  0.55048067  0.57240627    -0.00800
C778        C  0.81012062  0.51856881  0.60116943     0.04200
C779        C  0.76428719  0.62010216  0.66224663     0.38900
C780        C  0.85207729  0.52707988  0.54732763     0.38900
C781        C  0.81325646  0.46203788  0.59867762     0.37300
C782        C  0.80016596  0.68438477  0.60425671     0.37300
N783        N  0.81559879  0.41698399  0.59633242    -0.37500
N784        N  0.79679452  0.72912434  0.60775802    -0.37500
N785        N  0.87171196  0.50752554  0.52896840    -0.37000
N786        N  0.74744912  0.63953408  0.68712249    -0.37000
C787        C  0.78381732  0.57149092  0.37780932    -0.03700
C788        C  0.77274220  0.60408049  0.41458646    -0.00800
C789        C  0.79012811  0.61750797  0.45416211     0.04200
C790        C  0.81871351  0.59847968  0.45774725    -0.03700
C791        C  0.82870481  0.56207702  0.42325925    -0.00800
C792        C  0.81115642  0.54787294  0.38417101     0.04200
C793        C  0.74435638  0.62798403  0.41024870     0.38900
C794        C  0.85816535  0.54262320  0.42528632     0.38900
C795        C  0.82168054  0.50962177  0.34997986     0.37300
C796        C  0.77948176  0.65647160  0.48737656     0.37300
N797        N  0.83012302  0.47907616  0.32282270    -0.37500
N798        N  0.76980899  0.68824268  0.51207748    -0.37500
N799        N  0.88174807  0.52745785  0.42582754    -0.37000
N800        N  0.72179596  0.64721745  0.40696556    -0.37000
C801        C  0.62071120  0.59716313  0.86909421    -0.03700
C802        C  0.63950615  0.61948493  0.83475272    -0.00800
C803        C  0.65563984  0.58702765  0.80327828     0.04200
C804        C  0.65413946  0.53169406  0.80687975    -0.03700
C805        C  0.63396487  0.50973425  0.83949920    -0.00800
C806        C  0.61674752  0.54228866  0.86873711     0.04200
C807        C  0.64300683  0.67569133  0.83172812     0.38900
C808        C  0.63028818  0.45332346  0.84293669     0.38900
C809        C  0.59327381  0.51925698  0.89591551     0.37300
C810        C  0.67432493  0.61108399  0.76801947     0.37300
N811        N  0.57410301  0.49997121  0.91593327    -0.37500
N812        N  0.68891336  0.63063496  0.73960602    -0.37500
N813        N  0.62745265  0.40841890  0.84639840    -0.37000
N814        N  0.64679071  0.72031744  0.82782324    -0.37000
C815        C  0.62810857  0.59479704  0.98201938    -0.03700
C816        C  0.61937565  0.55828264  0.01730096    -0.00800
C817        C  0.63810802  0.54528831  0.05514319     0.04200
C818        C  0.66547618  0.56991546  0.05917366    -0.03700
C819        C  0.67511630  0.60302019  0.02206275    -0.00800
C820        C  0.65645574  0.61594245  0.98410075     0.04200
C821        C  0.58996786  0.53787242  0.01775586     0.38900
C822        C  0.70407716  0.62547609  0.02378285     0.38900
C823        C  0.66539424  0.65646940  0.95120440     0.35300
C824        C  0.62807475  0.50983021  0.09199890     0.37300
N825        N  0.67318246  0.68971907  0.92637421    -0.37500
N826        N  0.62002898  0.48148925  0.12128010    -0.37500
N827        N  0.72714196  0.64341446  0.02527362    -0.37000
N828        N  0.56645515  0.52197084  0.01926923    -0.37000
C829        C  0.90089744  0.76841861  0.64799884    -0.03700
C830        C  0.88087462  0.78943532  0.61528538    -0.00800
C831        C  0.86454301  0.75587643  0.58573447     0.04200
C832        C  0.86847857  0.70096832  0.58758706    -0.03700
C833        C  0.88641214  0.67975205  0.62309675    -0.00800
C834        C  0.90233756  0.71341065  0.65363706     0.04200
C835        C  0.87930376  0.84560391  0.60784043     0.38900
C836        C  0.89039251  0.62358043  0.62565692     0.38900
C837        C  0.92078266  0.69144096  0.69005653     0.37300
C838        C  0.84561386  0.77822693  0.54994030     0.37300
N839        N  0.93538342  0.67392291  0.71931028    -0.37500
N840        N  0.83054011  0.79594412  0.52143562    -0.37500
N841        N  0.89382552  0.57879050  0.62798145    -0.37000
N842        N  0.87818338  0.89024194  0.60114905    -0.37000
C843        C  0.54561913  0.76115862  0.79161076    -0.03700
C844        C  0.56679007  0.78132259  0.82333536    -0.00800
C845        C  0.58149680  0.74763800  0.85447119     0.04200
C846        C  0.57635629  0.69298782  0.85302469    -0.03700
C847        C  0.55826229  0.67208069  0.81727787    -0.00800
C848        C  0.54294447  0.70597955  0.78647255     0.04200
C849        C  0.57307991  0.83713112  0.82517652     0.38900
C850        C  0.55359735  0.61595492  0.81476833     0.38900
C851        C  0.02315110  0.68380100  0.75177887     0.37300
C852        C  0.60043275  0.76979636  0.89070593     0.37300
N853        N  0.00749036  0.66591257  0.72394193    -0.37500
N854        N  0.61543933  0.78738277  0.91965204    -0.37500
N855        N  0.54981133  0.57115309  0.81264912    -0.37000
N856        N  0.57814716  0.88154830  0.82701962    -0.37000
C857        C  0.91380002  0.05025508  0.63492182    -0.03700
C858        C  0.92702365  0.09399817  0.61197344    -0.00800
C859        C  0.91104507  0.12569384  0.58014520     0.04200
C860        C  0.88188337  0.11384971  0.56957613    -0.03700
C861        C  0.86871229  0.07071977  0.59230147    -0.00800
C862        C  0.88374804  0.04143292  0.62680730     0.04200
C863        C  0.95708925  0.10759728  0.62113477     0.38900
C864        C  0.84069811  0.05213474  0.57639835     0.38900
C865        C  0.86764810  0.00228097  0.65345575     0.37300
C866        C  0.92524577  0.16972992  0.55761717     0.37300
N867        N  0.85447821  0.97177020  0.67499759    -0.37500
N868        N  0.93790770  0.20430269  0.54089358    -0.37500
N869        N  0.81908239  0.03408803  0.56336205    -0.37000
N870        N  0.98107623  0.11860096  0.62807718    -0.37000
C871        C  0.54652068  0.03853063  0.79602399    -0.03700
C872        C  0.57633331  0.02745388  0.79580142    -0.00800
C873        C  0.59485532  0.05129260  0.82951368     0.04200
C874        C  0.58434632  0.09005480  0.86139837    -0.03700
C875        C  0.55437381  0.10178622  0.86081284    -0.00800
C876        C  0.53559861  0.07580678  0.82852274     0.04200
C877        C  0.58764100  0.98886425  0.76259023     0.38900
C878        C  0.54226418  0.13870062  0.89446936     0.38900
C879        C  0.00471918  0.08610413  0.82964037     0.37300
C880        C  0.62366244  0.03027787  0.83544741     0.37300
N881        N  0.98007163  0.09413176  0.83050604    -0.37500
N882        N  0.64610812  0.01111184  0.84024024    -0.37500
N883        N  0.53181090  0.16801564  0.92082718    -0.37000
N884        N  0.59657381  0.95818019  0.73599719    -0.37000
C885        C  0.87647012  0.86899882  0.06925400    -0.03700
C886        C  0.89891971  0.84564879  0.09568271    -0.00800
C887        C  0.91822963  0.87709185  0.12305373     0.04200
C888        C  0.91430352  0.93196356  0.12646993    -0.03700
C889        C  0.89093107  0.95477597  0.10159049    -0.00800
C890        C  0.87188996  0.92339554  0.07426741     0.04200
C891        C  0.90154583  0.78924912  0.09657428     0.38900
C892        C  0.88735196  0.01122917  0.10147835     0.38900
C893        C  0.84633723  0.94675196  0.05359360     0.37300
C894        C  0.94214199  0.85272602  0.14757570     0.37300
N895        N  0.82559634  0.96569364  0.03851627    -0.37500
N896        N  0.96136378  0.83282520  0.16650631    -0.37500
N897        N  0.88463440  0.05624858  0.10055967    -0.37000
N898        N  0.90391101  0.74419997  0.09863812    -0.37000
C899        C  0.91699825  0.89832838  0.87877458    -0.03700
C900        C  0.92500338  0.85906349  0.91164886    -0.00800
C901        C  0.90639827  0.84579468  0.94975491     0.04200
C902        C  0.88015460  0.87305149  0.95688093    -0.03700
C903        C  0.87319140  0.91475871  0.92585793    -0.00800
C904        C  0.89170920  0.92780326  0.88757495     0.04200
C905        C  0.95125827  0.82887240  0.90432582     0.38900
C906        C  0.84571177  0.94163887  0.93049601     0.38900
C907        C  0.88445494  0.97137321  0.85685500     0.37300
C908        C  0.91254243  0.79891334  0.97669921     0.37300
N909        N  0.87868237  0.00621013  0.83247860    -0.37500
N910        N  0.91811285  0.76037140  0.99603321    -0.37500
N911        N  0.82367175  0.96290332  0.93288369    -0.37000
N912        N  0.97218509  0.80482591  0.89866224    -0.37000
C913        C  0.82974779  0.77495604  0.08686967    -0.03700
C914        C  0.83183658  0.72035683  0.07857202    -0.00800
C915        C  0.81495620  0.68484090  0.10523137     0.04200
C916        C  0.79769499  0.70284900  0.14336242    -0.03700
C917        C  0.79824225  0.75679559  0.15527032    -0.00800
C918        C  0.81391318  0.79283980  0.12665772     0.04200
C919        C  0.84923516  0.70099473  0.03920105     0.38900
C920        C  0.78177246  0.77542843  0.19581946     0.38900
C921        C  0.81230230  0.84852108  0.13636114     0.37300
C922        C  0.81211131  0.63113753  0.08875075     0.37300
N923        N  0.81098190  0.89295562  0.14436055    -0.37500
N924        N  0.80912885  0.58898669  0.07423745    -0.37500
N925        N  0.76868777  0.79028995  0.22828464    -0.37000
N926        N  0.86304704  0.68533497  0.00788312    -0.37000
C927        C  0.57847428  0.87153509  0.36134624    -0.03700
C928        C  0.58672741  0.92421677  0.35467200    -0.00800
C929        C  0.57091139  0.95689348  0.32407439     0.04200
C930        C  0.54697890  0.93696743  0.29813923    -0.03700
C931        C  0.54023780  0.88292408  0.30171147    -0.00800
C932        C  0.55633081  0.85016442  0.33253582     0.04200
C933        C  0.61292605  0.94387744  0.37687853     0.38900
C934        C  0.51582136  0.86139602  0.27581938     0.38900
C935        C  0.55085196  0.79434709  0.33286555     0.37300
C936        C  0.57958666  0.01129578  0.31941182     0.37300
N937        N  0.54636715  0.74971664  0.33143317    -0.37500
N938        N  0.08656543  0.05473154  0.31644530    -0.37500
N939        N  0.49619983  0.84394400  0.25559922    -0.37000
N940        N  0.63439873  0.95939725  0.39291159    -0.37000
C941        C  0.53262342  0.88871081  0.55542888    -0.03700
C942        C  0.55532261  0.92400226  0.54363102    -0.00800
C943        C  0.57309645  0.91468821  0.50347259     0.04200
C944        C  0.56848173  0.87035956  0.47399897    -0.03700
C945        C  0.54429267  0.83773735  0.48332776    -0.00800
C946        C  0.52626816  0.84721960  0.52325133     0.04200
C947        C  0.56202663  0.96825216  0.57438938     0.38900
C948        C  0.53923076  0.79107782  0.45502163     0.38900
C949        C  0.50142234  0.81320240  0.53140537     0.37300
C950        C  0.59765803  0.94906426  0.49504721     0.37300
N951        N  0.98169659  0.78590927  0.53780333    -0.37500
N952        N  0.61712409  0.97727087  0.49013996    -0.37500
N953        N  0.53422647  0.75298295  0.43413364    -0.37000
N954        N  0.56746302  0.00362854  0.59873061    -0.37000
C955        C  0.65698560  0.70962776  0.28908033    -0.03700
C956        C  0.66020561  0.76423492  0.28154097    -0.00800
C957        C  0.64489398  0.80039094  0.31040550     0.04200
C958        C  0.62635736  0.78227357  0.34686147    -0.03700
C959        C  0.62109105  0.72794659  0.35119484    -0.00800
C960        C  0.63590065  0.69195438  0.32208041     0.04200
C961        C  0.68082049  0.78361255  0.24671045     0.38900
C962        C  0.60268278  0.70839388  0.38921080     0.38900
C963        C  0.63010668  0.63636936  0.32792688     0.37300
C964        C  0.64981741  0.85607051  0.30441931     0.37300
N965        N  0.62551105  0.59219254  0.33335963    -0.37500
N966        N  0.65419093  0.90024720  0.29849630    -0.37500
N967        N  0.58853454  0.69210214  0.41982671    -0.37000
N968        N  0.69722951  0.79921424  0.21892430    -0.37000
loop_ 
_geom_bond_atom_site_label_1 
_geom_bond_atom_site_label_2 
_geom_bond_distance 
_geom_bond_site_symmetry_2 
_ccdc_geom_bond_type 
N1            C5   1.368       .  A
N1            C2   1.362       .  A
N1          C443   1.450       .  S
C2            C3   1.382       .  A
C2          C474   1.487       .  S
C3            C4   1.367       .  A
C3            H6   1.081       .  S
C4            C5   1.380       .  A
C4            H7   1.080       .  S
C5          C460   1.497       .  S
N8           C12   1.368   1_554  A
N8            C9   1.365       .  A
N8          C401   1.455       .  S
C9           C10   1.384       .  A
C9          C429   1.491       .  S
C10          C11   1.365   1_554  A
C10          H13   1.082       .  S
C11          C12   1.379       .  A
C11          H14   1.082       .  S
C12         C418   1.494       .  S
O15          C31   1.270   1_565  A
O15        Zn505   1.991   1_455  S
C16         C415   1.496       .  S
C16          O32   1.272       .  A
C16          O29   1.276       .  A
O17          C30   1.276       .  A
O17        Cd508   2.098   1_455  S
O18          C36   1.276       .  A
O18         Cd27   2.074       .  S
O19          C33   1.276       .  A
O19         Cd23   2.082   1_545  S
O20          C31   1.279       .  A
O20        Cd507   2.109   1_445  S
Zn21         O32   2.008       .  S
Zn21        O499   1.991       .  S
Zn21        O518   2.009       .  S
Zn21         O26   1.931       .  S
O22          C33   1.277   1_565  A
O22         Cd27   2.085       .  S
Cd23        O504   2.109   1_565  S
Cd23        O509   2.086       .  S
Cd23         O26   2.012       .  S
Cd24         O37   2.086       .  S
Cd24        O501   2.098       .  S
Cd24        O512   2.080       .  S
Cd24         O26   2.016       .  S
O25          C35   1.278       .  A
O25        Cd507   2.086   1_455  S
O26         Cd27   2.003       .  S
Cd27         O29   2.083       .  S
O28          C35   1.277       .  A
O28        Cd508   2.080   1_455  S
C30         C359   1.501       .  S
C30          O34   1.274       .  A
C31         C387   1.483       .  S
C33         C373   1.518       .  S
O34        Zn505   2.009   1_455  S
C35         C457   1.507       .  S
C36         C345   1.491       .  S
C36          O37   1.278       .  A
N38          C42   1.371       .  A
N38          C39   1.367       .  A
N38         C317   1.459       .  S
C39          C40   1.382       .  A
C39         C362   1.489       .  S
C40          C41   1.364       .  A
C40          H43   1.081       .  S
C41          C42   1.380       .  A
C41          H44   1.081   1_556  S
C42         C331   1.497       .  S
N45          C49   1.368       .  A
N45          C46   1.365       .  A
N45         C292   1.456       .  S
C46          C47   1.382       .  A
C46         C348   1.487       .  S
C47          C48   1.363       .  A
C47          H50   1.080       .  S
C48          C49   1.380       .  A
C48          H51   1.079       .  S
C49         C306   1.493       .  S
O52          C68   1.270       .  A
O52         Zn58   1.993       .  S
C53         C303   1.498       .  S
C53          O69   1.271       .  A
C53          O66   1.278       .  A
O54          C67   1.275       .  A
O54         Cd61   2.086       .  S
O55          C73   1.278       .  A
O55         Cd64   2.092       .  S
O56          C70   1.278       .  A
O56         Cd60   2.076       .  S
O57          C68   1.278       .  A
O57         Cd60   2.110       .  S
Zn58         O69   1.994       .  S
Zn58         O71   2.003       .  S
Zn58         O63   1.932       .  S
O59          C70   1.278       .  A
O59         Cd64   2.091       .  S
Cd60         O62   2.092       .  S
Cd60         O63   2.014       .  S
Cd61         O65   2.071       .  S
Cd61         O74   2.086       .  S
Cd61         O63   2.010       .  S
O62          C72   1.278       .  A
O63         Cd64   2.012       .  S
Cd64         O66   2.090       .  S
O65          C72   1.277       .  A
C67         C471   1.496       .  S
C67          O71   1.273       .  A
C68         C261   1.484       .  S
C70         C275   1.501       .  S
C72         C334   1.495       .  S
C73         C432   1.493       .  S
C73          O74   1.277       .  A
N75          C79   1.366       .  A
N75          C76   1.369       .  A
N75         C264   1.452       .  S
C76          C77   1.381       .  A
C76         C250   1.504       .  S
C77          C78   1.369       .  A
C77          H80   1.082       .  S
C78          C79   1.383       .  A
C78          H81   1.082       .  S
C79         C233   1.497       .  S
N82          C86   1.362   1_554  A
N82          C83   1.365       .  A
N82         C278   1.449       .  S
C83          C84   1.379       .  A
C83         C222   1.493       .  S
C84          C85   1.369   1_554  A
C84          H87   1.082       .  S
C85          C86   1.383       .  A
C85          H88   1.082       .  S
C86         C205   1.494       .  S
O89         C105   1.273       .  A
O89         Zn95   2.007       .  S
C90         C320   1.510       .  S
C90         O106   1.274       .  A
C90         O103   1.283       .  A
O91         C104   1.273       .  A
O91         Cd98   2.074       .  S
O92         C110   1.282       .  A
O92        Cd101   2.127       .  S
O93         C107   1.279       .  A
O93         Cd97   2.074       .  S
O94         C105   1.276       .  A
O94         Cd97   2.090       .  S
Zn95        O106   2.006       .  S
Zn95        O108   2.023       .  S
Zn95        O100   1.930       .  S
O96         C107   1.283       .  A
O96        Cd101   2.113       .  S
Cd97         O99   2.108       .  S
Cd97        O100   2.016       .  S
Cd98        O102   2.045       .  S
Cd98        O111   2.054       .  S
Cd98        O100   1.987       .  S
O99         C109   1.277       .  A
O100       Cd101   2.025       .  S
Cd101       O103   2.129       .  S
O102        C109   1.272       .  A
C104        C194   1.483       .  S
C104        O108   1.274       .  A
C105        C208   1.506       .  S
C107        C289   1.497       .  S
C109        C177   1.506       .  S
C110        C236   1.516       .  S
C110        O111   1.273       .  A
N112        C116   1.369       .  A
N112        C113   1.370       .  A
N112        C390   1.457       .  S
C113        C114   1.382       .  A
C113        C191   1.503       .  S
C114        C115   1.365       .  A
C114        H117   1.080       .  S
C115        C116   1.382       .  A
C115        H118   1.080       .  S
C116        C166   1.497       .  S
N119        C123   1.365       .  A
N119        C120   1.367       .  A
N119        C376   1.453       .  S
C120        C121   1.380       .  A
C120        C180   1.493       .  S
C121        C122   1.367       .  A
C121        H124   1.082       .  S
C122        C123   1.381       .  A
C122        H125   1.082       .  S
C123        C149   1.490       .  S
O126        C142   1.273       .  A
O126       Zn132   2.017       .  S
C127        C446   1.499       .  S
C127        O143   1.274   1_565  A
C127        O140   1.283       .  A
O128        C141   1.278       .  A
O128       Cd619   2.107   1_455  S
O129        C147   1.283       .  A
O129       Cd622   2.117   1_455  S
O130        C144   1.278       .  A
O130       Cd134   2.085   1_565  S
O131        C142   1.276       .  A
O131       Cd134   2.087       .  S
Zn132       O627   2.000       .  S
Zn132       O629   2.023       .  S
Zn132       O137   1.932       .  S
O133        C144   1.281       .  A
O133       Cd138   2.116   1_565  S
Cd134       O136   2.065       .  S
Cd134       O137   2.000       .  S
Cd135       O139   2.087       .  S
Cd135       O612   2.107       .  S
Cd135       O632   2.082       .  S
Cd135       O137   2.008       .  S
O136        C146   1.273       .  A
O137       Cd138   2.023       .  S
Cd138       O613   2.117       .  S
Cd138       O624   2.125   1_545  S
O139        C146   1.278       .  A
O140       Cd622   2.125   1_465  S
C141        C247   1.495       .  S
C141        O145   1.275       .  A
C142        C152   1.489       .  S
O143       Zn616   2.000   1_455  S
C144        C404   1.503       .  S
O145       Zn616   2.023   1_455  S
C146        C219   1.512       .  S
C147        C163   1.514       .  S
C147        O148   1.279       .  A
O148       Cd619   2.082   1_455  S
C149        C150   1.416       .  A
C149        C154   1.414       .  A
C150        C151   1.409       .  A
C150        C155   1.453       .  S
C151        C152   1.413       .  A
C151        C158   1.453       .  S
C152        C153   1.412       .  A
C153        C154   1.417       .  A
C153        C156   1.450   1_545  S
C154        C157   1.448       .  S
C155        N162   1.157       .  T
C156        N161   1.157       .  T
C157        N159   1.157   1_545  T
C158        N160   1.157       .  T
C163        C164   1.423       .  A
C163        C168   1.425       .  A
C164        C165   1.411       .  A
C164        C169   1.453       .  S
C165        C166   1.414   1_554  A
C165        C172   1.455   1_554  S
C166        C167   1.408       .  A
C167        C168   1.422   1_556  A
C167        C170   1.450       .  S
C168        C171   1.449   1_545  S
C169        N660   1.158       .  T
C170        N175   1.157   1_545  T
C171        N173   1.157       .  T
C172        N174   1.157       .  T
N176        C653   1.158       .  T
C177        C178   1.418       .  A
C177        C182   1.417       .  A
C178        C179   1.408       .  A
C178        C183   1.454       .  S
C179        C180   1.413       .  A
C179        C186   1.451       .  S
C180        C181   1.416       .  A
C181        C182   1.419       .  A
C181        C184   1.449       .  S
C182        C185   1.451       .  S
C183        N190   1.157       .  T
C184        N189   1.157       .  T
C185        N187   1.158       .  T
C186        N188   1.157       .  T
C191        C192   1.422       .  A
C191        C196   1.419       .  A
C192        C193   1.412       .  A
C192        C197   1.451       .  S
C193        C194   1.408       .  A
C193        C200   1.452       .  S
C194        C195   1.407       .  A
C195        C196   1.415       .  A
C195        C198   1.452       .  S
C196        C199   1.445       .  S
C197        N204   1.157       .  T
C198        N203   1.157       .  T
C199        N201   1.156       .  T
C200        N202   1.157       .  T
C205        C206   1.411       .  A
C205        C210   1.417       .  A
C206        C207   1.413       .  A
C206        C211   1.447   1_556  S
C207        C208   1.419       .  A
C207        C214   1.453       .  S
C208        C209   1.418       .  A
C209        C210   1.413       .  A
C209        C212   1.451       .  S
C210        C213   1.453       .  S
C211        N218   1.157       .  T
C212        N217   1.158       .  T
C213        N215   1.157       .  T
C214        N216   1.158       .  T
C219        C220   1.423       .  A
C219        C224   1.419       .  A
C220        C221   1.413       .  A
C220        C225   1.453       .  S
C221        C222   1.413       .  A
C221        C228   1.451       .  S
C222        C223   1.414       .  A
C223        C224   1.415       .  A
C223        C226   1.448       .  S
C224        C227   1.452       .  S
C225        N232   1.158       .  T
C226        N231   1.156       .  T
C227        N229   1.158       .  T
C228        N230   1.157       .  T
C233        C234   1.411       .  A
C233        C238   1.411       .  A
C234        C235   1.423       .  A
C234        C239   1.449       .  S
C235        C236   1.424       .  A
C235        C242   1.450       .  S
C236        C237   1.426       .  A
C237        C238   1.411       .  A
C237        C240   1.454       .  S
C238        C241   1.455       .  S
C239        N246   1.157       .  T
C240        N245   1.158       .  T
C241        N243   1.157       .  T
C242        N244   1.158       .  T
C247        C248   1.411       .  A
C247        C252   1.410       .  A
C248        C249   1.417       .  A
C248        C737   1.451   1_455  S
C249        C250   1.421       .  A
C249        C256   1.450       .  S
C250        C251   1.416       .  A
C251        C252   1.415       .  A
C251        C254   1.447       .  S
C252        C255   1.450       .  S
C253        C732   1.451       .  S
C253        N260   1.157       .  T
C254        N259   1.156       .  T
C255        N257   1.157       .  T
C256        N258   1.157       .  T
C261        C262   1.412       .  A
C261        C266   1.408       .  A
C262        C263   1.417       .  A
C262        C267   1.451       .  S
C263        C264   1.415       .  A
C263        C270   1.446       .  S
C264        C265   1.415       .  A
C265        C266   1.410       .  A
C265        C268   1.447       .  S
C266        C269   1.451       .  S
C267        N274   1.157       .  T
C268        N273   1.157       .  T
C269        N271   1.157       .  T
C270        N272   1.157       .  T
C275        C276   1.416       .  A
C275        C280   1.418       .  A
C276        C277   1.412       .  A
C276        C281   1.452       .  S
C277        C278   1.413       .  A
C277        C284   1.448       .  S
C278        C279   1.409       .  A
C279        C280   1.415       .  A
C279        C282   1.446       .  S
C280        C283   1.449       .  S
C281        N288   1.158       .  T
C282        N287   1.157       .  T
C283        N285   1.157       .  T
C284        N286   1.157       .  T
C289        C290   1.413       .  A
C289        C294   1.415       .  A
C290        C291   1.420       .  A
C290        C295   1.449       .  S
C291        C292   1.417       .  A
C291        C298   1.446       .  S
C292        C293   1.412       .  A
C293        C294   1.411       .  A
C293        C296   1.447       .  S
C294        C297   1.452       .  S
C295        N302   1.157       .  T
C296        N301   1.157       .  T
C297        N299   1.157       .  T
C298        N300   1.157       .  T
C303        C304   1.420       .  A
C303        C308   1.413       .  A
C304        C305   1.413       .  A
C304        C309   1.454       .  S
C305        C306   1.412       .  A
C305        C312   1.449       .  S
C306        C307   1.418       .  A
C307        C308   1.412       .  A
C307        C310   1.451       .  S
C308        C311   1.452       .  S
C309        N316   1.158       .  T
C310        N315   1.157       .  T
C311        N313   1.157       .  T
C312        N314   1.156       .  T
C317        C318   1.416       .  A
C317        C322   1.412       .  A
C318        C319   1.422       .  A
C318        C323   1.446       .  S
C319        C320   1.418       .  A
C319        C326   1.449       .  S
C320        C321   1.421       .  A
C321        C322   1.413       .  A
C321        C324   1.452       .  S
C322        C325   1.448       .  S
C323        N330   1.157       .  T
C324        N329   1.157       .  T
C325        N327   1.157       .  T
C326        N328   1.157       .  T
C331        C332   1.420   1_556  A
C331        C336   1.414       .  A
C332        C333   1.414       .  A
C332        C337   1.451       .  S
C333        C334   1.413       .  A
C333        C340   1.452       .  S
C334        C335   1.415       .  A
C335        C336   1.414   1_554  A
C335        C338   1.453       .  S
C336        C339   1.448       .  S
C337        N344   1.157       .  T
C338        N343   1.157       .  T
C339        N341   1.157       .  T
C340        N342   1.158       .  T
C345        C346   1.415       .  A
C345        C350   1.415       .  A
C346        C347   1.408       .  A
C346        C351   1.452       .  S
C347        C348   1.415       .  A
C347        C354   1.454       .  S
C348        C349   1.410       .  A
C349        C350   1.416       .  A
C349        C352   1.448       .  S
C350        C353   1.450       .  S
C351        N358   1.157       .  T
C352        N357   1.157       .  T
C353        N355   1.157       .  T
C354        N356   1.157       .  T
C359        C360   1.418       .  A
C359        C364   1.420       .  A
C360        C361   1.408       .  A
C360        C365   1.453       .  S
C361        C362   1.414       .  A
C361        C368   1.454       .  S
C362        C363   1.409       .  A
C363        C364   1.419       .  A
C363        C366   1.449       .  S
C364        C851   1.449       .  S
C365        N372   1.157       .  T
C366        N371   1.157       .  T
C367        C848   1.449       .  S
C367        N369   1.157       .  T
C368        N370   1.157       .  T
C373        C374   1.426       .  A
C373        C378   1.423       .  A
C374        C375   1.419       .  A
C374        C379   1.452       .  S
C375        C376   1.410       .  A
C375        C382   1.446       .  S
C376        C377   1.410       .  A
C377        C378   1.413       .  A
C377        C380   1.446       .  S
C378        C381   1.452       .  S
C379        N386   1.158       .  T
C380        N385   1.156       .  T
C381        N383   1.158   1_545  T
C382        N384   1.157       .  T
C387        C388   1.406       .  A
C387        C392   1.411       .  A
C388        C389   1.412       .  A
C388        C393   1.453   1_545  S
C389        C390   1.419       .  A
C389        C396   1.447       .  S
C390        C391   1.417       .  A
C391        C392   1.417       .  A
C391        C394   1.446       .  S
C392        C879   1.451       .  S
C393        N400   1.157       .  T
C394        N399   1.157       .  T
C395        C876   1.451       .  S
C395        N397   1.157       .  T
C396        N398   1.156       .  T
C401        C402   1.412       .  A
C401        C406   1.412       .  A
C402        C403   1.422       .  A
C402        C407   1.446       .  S
C403        C404   1.416       .  A
C403        C410   1.447       .  S
C404        C405   1.416       .  A
C405        C406   1.412       .  A
C405        C408   1.451   1_565  S
C406        C409   1.448       .  S
C407        N414   1.157       .  T
C408        N413   1.157       .  T
C409        N411   1.157       .  T
C410        N412   1.157       .  T
C415        C416   1.417       .  A
C415        C420   1.413       .  A
C416        C417   1.413       .  A
C416        C421   1.453       .  S
C417        C418   1.414       .  A
C417        C424   1.449       .  S
C418        C419   1.418       .  A
C419        C420   1.413       .  A
C419        C422   1.451       .  S
C420        C423   1.452       .  S
C421        N428   1.158       .  T
C422        N427   1.157       .  T
C423        N425   1.157   1_565  T
C424        N426   1.156       .  T
C429        C430   1.416       .  A
C429        C434   1.411       .  A
C430        C431   1.409       .  A
C430        C435   1.453       .  S
C431        C432   1.411       .  A
C431        C438   1.450       .  S
C432        C433   1.416       .  A
C433        C434   1.419       .  A
C433        C436   1.449       .  S
C434        C437   1.448       .  S
C435        N442   1.157       .  T
C436        N441   1.157       .  T
C437        N439   1.157       .  T
C438        N440   1.157       .  T
C443        C444   1.409       .  A
C443        C448   1.411       .  A
C444        C445   1.408       .  A
C444        C449   1.448       .  S
C445        C446   1.416       .  A
C445        C452   1.449   1_565  S
C446        C447   1.416       .  A
C447        C448   1.420       .  A
C447        C450   1.448       .  S
C448        C451   1.446       .  S
C449        N456   1.157       .  T
C450        N455   1.157   1_455  T
C451        N453   1.157       .  T
C452        N938   1.156       .  T
N454        C936   1.156       .  T
C457        C458   1.418       .  A
C457        C462   1.420       .  A
C458        C459   1.414       .  A
C458        C463   1.452       .  S
C459        C460   1.415       .  A
C459        C466   1.450       .  S
C460        C461   1.414       .  A
C461        C462   1.417       .  A
C461        C464   1.448       .  S
C462        C465   1.453       .  S
C463        N470   1.157   1_565  T
C464        N469   1.156       .  T
C465        N951   1.158   1_455  T
C466        N468   1.157       .  T
N467        C949   1.158       .  T
C471        C472   1.418       .  A
C471        C476   1.417       .  A
C472        C473   1.417       .  A
C472        C477   1.451       .  S
C473        C474   1.412       .  A
C473        C480   1.448       .  S
C474        C475   1.412       .  A
C475        C476   1.407       .  A
C475        C478   1.453       .  S
C476        C479   1.452       .  S
C477        N484   1.157       .  T
C478        N483   1.157       .  T
C479        N481   1.157       .  T
C480        N482   1.157       .  T
N485        C489   1.368       .  A
N485        C486   1.362       .  A
N485        C927   1.450       .  S
C486        C487   1.382       .  A
C486        C958   1.487       .  S
C487        C488   1.367       .  A
C487        H490   1.081       .  S
C488        C489   1.380       .  A
C488        H491   1.080       .  S
C489        C944   1.497       .  S
N492        C496   1.368   1_554  A
N492        C493   1.365       .  A
N492        C885   1.455       .  S
C493        C494   1.384       .  A
C493        C913   1.491       .  S
C494        C495   1.365   1_554  A
C494        H497   1.082       .  S
C495        C496   1.379       .  A
C495        H498   1.082       .  S
C496        C902   1.494       .  S
O499        C515   1.270   1_565  A
C500        C899   1.496       .  S
C500        O516   1.272       .  A
C500        O513   1.276       .  A
O501        C514   1.276       .  A
O502        C520   1.276       .  A
O502       Cd511   2.074       .  S
O503        C517   1.276       .  A
O503       Cd507   2.082   1_545  S
O504        C515   1.279       .  A
Zn505       O516   2.008       .  S
Zn505       O510   1.931       .  S
O506        C517   1.277   1_565  A
O506       Cd511   2.085       .  S
Cd507       O510   2.012       .  S
Cd508       O521   2.086       .  S
Cd508       O510   2.016       .  S
O509        C519   1.278       .  A
O510       Cd511   2.003       .  S
Cd511       O513   2.083       .  S
O512        C519   1.277       .  A
C514        C843   1.501       .  S
C514        O518   1.274       .  A
C515        C871   1.483       .  S
C517        C857   1.518       .  S
C519        C941   1.507       .  S
C520        C829   1.491       .  S
C520        O521   1.278       .  A
N522        C526   1.371       .  A
N522        C523   1.367       .  A
N522        C801   1.459       .  S
C523        C524   1.382       .  A
C523        C846   1.489       .  S
C524        C525   1.364       .  A
C524        H527   1.081       .  S
C525        C526   1.380       .  A
C525        H528   1.081   1_556  S
C526        C815   1.497       .  S
N529        C533   1.368       .  A
N529        C530   1.365       .  A
N529        C776   1.456       .  S
C530        C531   1.382       .  A
C530        C832   1.487       .  S
C531        C532   1.363       .  A
C531        H534   1.080       .  S
C532        C533   1.380       .  A
C532        H535   1.079       .  S
C533        C790   1.493       .  S
O536        C552   1.270       .  A
O536       Zn542   1.993       .  S
C537        C787   1.498       .  S
C537        O553   1.271       .  A
C537        O550   1.278       .  A
O538        C551   1.275       .  A
O538       Cd545   2.086       .  S
O539        C557   1.278       .  A
O539       Cd548   2.092       .  S
O540        C554   1.278       .  A
O540       Cd544   2.076       .  S
O541        C552   1.278       .  A
O541       Cd544   2.110       .  S
Zn542       O553   1.994       .  S
Zn542       O555   2.003       .  S
Zn542       O547   1.932       .  S
O543        C554   1.278       .  A
O543       Cd548   2.091       .  S
Cd544       O546   2.092       .  S
Cd544       O547   2.014       .  S
Cd545       O549   2.071       .  S
Cd545       O558   2.086       .  S
Cd545       O547   2.010       .  S
O546        C556   1.278       .  A
O547       Cd548   2.012       .  S
Cd548       O550   2.090       .  S
O549        C556   1.277       .  A
C551        C955   1.496       .  S
C551        O555   1.273       .  A
C552        C745   1.484       .  S
C554        C759   1.501       .  S
C556        C818   1.495       .  S
C557        C916   1.493       .  S
C557        O558   1.277       .  A
N559        C563   1.366       .  A
N559        C560   1.369       .  A
N559        C748   1.452       .  S
C560        C561   1.381       .  A
C560        C734   1.504       .  S
C561        C562   1.369       .  A
C561        H564   1.082       .  S
C562        C563   1.383       .  A
C562        H565   1.082       .  S
C563        C717   1.497       .  S
N566        C570   1.362   1_554  A
N566        C567   1.365       .  A
N566        C762   1.449       .  S
C567        C568   1.379       .  A
C567        C706   1.493       .  S
C568        C569   1.369   1_554  A
C568        H571   1.082       .  S
C569        C570   1.383       .  A
C569        H572   1.082       .  S
C570        C689   1.494       .  S
O573        C589   1.273       .  A
O573       Zn579   2.007       .  S
C574        C804   1.510       .  S
C574        O590   1.274       .  A
C574        O587   1.283       .  A
O575        C588   1.273       .  A
O575       Cd582   2.074       .  S
O576        C594   1.282       .  A
O576       Cd585   2.127       .  S
O577        C591   1.279       .  A
O577       Cd581   2.074       .  S
O578        C589   1.276       .  A
O578       Cd581   2.090       .  S
Zn579       O590   2.006       .  S
Zn579       O592   2.023       .  S
Zn579       O584   1.930       .  S
O580        C591   1.283       .  A
O580       Cd585   2.113       .  S
Cd581       O583   2.108       .  S
Cd581       O584   2.016       .  S
Cd582       O586   2.045       .  S
Cd582       O595   2.054       .  S
Cd582       O584   1.987       .  S
O583        C593   1.277       .  A
O584       Cd585   2.025       .  S
Cd585       O587   2.129       .  S
O586        C593   1.272       .  A
C588        C678   1.483       .  S
C588        O592   1.274       .  A
C589        C692   1.506       .  S
C591        C773   1.497       .  S
C593        C661   1.506       .  S
C594        C720   1.516       .  S
C594        O595   1.273       .  A
N596        C600   1.369       .  A
N596        C597   1.370       .  A
N596        C874   1.457       .  S
C597        C598   1.382       .  A
C597        C675   1.503       .  S
C598        C599   1.365       .  A
C598        H601   1.080       .  S
C599        C600   1.382       .  A
C599        H602   1.080       .  S
C600        C650   1.497       .  S
N603        C607   1.365       .  A
N603        C604   1.367       .  A
N603        C860   1.453       .  S
C604        C605   1.380       .  A
C604        C664   1.493       .  S
C605        C606   1.367       .  A
C605        H608   1.082       .  S
C606        C607   1.381       .  A
C606        H609   1.082       .  S
C607        C633   1.490       .  S
O610        C626   1.273       .  A
O610       Zn616   2.017       .  S
C611        C930   1.499       .  S
C611        O627   1.274   1_565  A
C611        O624   1.283       .  A
O612        C625   1.278       .  A
O613        C631   1.283       .  A
O614        C628   1.278       .  A
O614       Cd618   2.085   1_565  S
O615        C626   1.276       .  A
O615       Cd618   2.088       .  S
Zn616       O621   1.932       .  S
O617        C628   1.281       .  A
O617       Cd622   2.116   1_565  S
Cd618       O620   2.065       .  S
Cd618       O621   2.000       .  S
Cd619       O623   2.087       .  S
Cd619       O621   2.008       .  S
O620        C630   1.273       .  A
O621       Cd622   2.023       .  S
O623        C630   1.278       .  A
C625        C731   1.495       .  S
C625        O629   1.275       .  A
C626        C636   1.489       .  S
C628        C888   1.503       .  S
C630        C703   1.512       .  S
C631        C647   1.514       .  S
C631        O632   1.279       .  A
C633        C634   1.416       .  A
C633        C638   1.414       .  A
C634        C635   1.409       .  A
C634        C639   1.453       .  S
C635        C636   1.413       .  A
C635        C642   1.453       .  S
C636        C637   1.412       .  A
C637        C638   1.417       .  A
C637        C640   1.450   1_545  S
C638        C641   1.448       .  S
C639        N646   1.157       .  T
C640        N645   1.157       .  T
C641        N643   1.157   1_545  T
C642        N644   1.157       .  T
C647        C648   1.423       .  A
C647        C652   1.425       .  A
C648        C649   1.411       .  A
C648        C653   1.453       .  S
C649        C650   1.414   1_554  A
C649        C656   1.455   1_554  S
C650        C651   1.408       .  A
C651        C652   1.422   1_556  A
C651        C654   1.450       .  S
C652        C655   1.449   1_545  S
C654        N659   1.157   1_545  T
C655        N657   1.157       .  T
C656        N658   1.157       .  T
C661        C662   1.418       .  A
C661        C666   1.417       .  A
C662        C663   1.408       .  A
C662        C667   1.454       .  S
C663        C664   1.413       .  A
C663        C670   1.451       .  S
C664        C665   1.416       .  A
C665        C666   1.419       .  A
C665        C668   1.449       .  S
C666        C669   1.451       .  S
C667        N674   1.157       .  T
C668        N673   1.157       .  T
C669        N671   1.158       .  T
C670        N672   1.157       .  T
C675        C676   1.422       .  A
C675        C680   1.419       .  A
C676        C677   1.412       .  A
C676        C681   1.451       .  S
C677        C678   1.408       .  A
C677        C684   1.452       .  S
C678        C679   1.407       .  A
C679        C680   1.415       .  A
C679        C682   1.452       .  S
C680        C683   1.445       .  S
C681        N688   1.157       .  T
C682        N687   1.157       .  T
C683        N685   1.156       .  T
C684        N686   1.157       .  T
C689        C690   1.411       .  A
C689        C694   1.417       .  A
C690        C691   1.413       .  A
C690        C695   1.447   1_556  S
C691        C692   1.419       .  A
C691        C698   1.453       .  S
C692        C693   1.418       .  A
C693        C694   1.413       .  A
C693        C696   1.451       .  S
C694        C697   1.453       .  S
C695        N702   1.157       .  T
C696        N701   1.158       .  T
C697        N699   1.157       .  T
C698        N700   1.158       .  T
C703        C704   1.423       .  A
C703        C708   1.419       .  A
C704        C705   1.413       .  A
C704        C709   1.453       .  S
C705        C706   1.413       .  A
C705        C712   1.451       .  S
C706        C707   1.414       .  A
C707        C708   1.415       .  A
C707        C710   1.448       .  S
C708        C711   1.452       .  S
C709        N716   1.158       .  T
C710        N715   1.156       .  T
C711        N713   1.158       .  T
C712        N714   1.157       .  T
C717        C718   1.411       .  A
C717        C722   1.411       .  A
C718        C719   1.423       .  A
C718        C723   1.449       .  S
C719        C720   1.424       .  A
C719        C726   1.450       .  S
C720        C721   1.426       .  A
C721        C722   1.411       .  A
C721        C724   1.454       .  S
C722        C725   1.455       .  S
C723        N730   1.157       .  T
C724        N729   1.158       .  T
C725        N727   1.157       .  T
C726        N728   1.158       .  T
C731        C732   1.411       .  A
C731        C736   1.410       .  A
C732        C733   1.417       .  A
C733        C734   1.421       .  A
C733        C740   1.450       .  S
C734        C735   1.416       .  A
C735        C736   1.415       .  A
C735        C738   1.447       .  S
C736        C739   1.450       .  S
C737        N744   1.157       .  T
C738        N743   1.156       .  T
C739        N741   1.157       .  T
C740        N742   1.157       .  T
C745        C746   1.412       .  A
C745        C750   1.408       .  A
C746        C747   1.417       .  A
C746        C751   1.451       .  S
C747        C748   1.415       .  A
C747        C754   1.446       .  S
C748        C749   1.415       .  A
C749        C750   1.410       .  A
C749        C752   1.447       .  S
C750        C753   1.451       .  S
C751        N758   1.157       .  T
C752        N757   1.157       .  T
C753        N755   1.157       .  T
C754        N756   1.157       .  T
C759        C760   1.416       .  A
C759        C764   1.418       .  A
C760        C761   1.412       .  A
C760        C765   1.452       .  S
C761        C762   1.413       .  A
C761        C768   1.448       .  S
C762        C763   1.409       .  A
C763        C764   1.415       .  A
C763        C766   1.446       .  S
C764        C767   1.449       .  S
C765        N772   1.158       .  T
C766        N771   1.157       .  T
C767        N769   1.157       .  T
C768        N770   1.157       .  T
C773        C774   1.413       .  A
C773        C778   1.415       .  A
C774        C775   1.420       .  A
C774        C779   1.449       .  S
C775        C776   1.417       .  A
C775        C782   1.446       .  S
C776        C777   1.412       .  A
C777        C778   1.411       .  A
C777        C780   1.447       .  S
C778        C781   1.452       .  S
C779        N786   1.157       .  T
C780        N785   1.157       .  T
C781        N783   1.157       .  T
C782        N784   1.157       .  T
C787        C788   1.420       .  A
C787        C792   1.413       .  A
C788        C789   1.413       .  A
C788        C793   1.454       .  S
C789        C790   1.412       .  A
C789        C796   1.449       .  S
C790        C791   1.418       .  A
C791        C792   1.412       .  A
C791        C794   1.451       .  S
C792        C795   1.452       .  S
C793        N800   1.158       .  T
C794        N799   1.157       .  T
C795        N797   1.157       .  T
C796        N798   1.156       .  T
C801        C802   1.416       .  A
C801        C806   1.412       .  A
C802        C803   1.422       .  A
C802        C807   1.446       .  S
C803        C804   1.418       .  A
C803        C810   1.449       .  S
C804        C805   1.421       .  A
C805        C806   1.413       .  A
C805        C808   1.452       .  S
C806        C809   1.448       .  S
C807        N814   1.157       .  T
C808        N813   1.157       .  T
C809        N811   1.157       .  T
C810        N812   1.157       .  T
C815        C816   1.420   1_556  A
C815        C820   1.414       .  A
C816        C817   1.414       .  A
C816        C821   1.451       .  S
C817        C818   1.413       .  A
C817        C824   1.452       .  S
C818        C819   1.415       .  A
C819        C820   1.414   1_554  A
C819        C822   1.453       .  S
C820        C823   1.448       .  S
C821        N828   1.157       .  T
C822        N827   1.157       .  T
C823        N825   1.157       .  T
C824        N826   1.158       .  T
C829        C830   1.415       .  A
C829        C834   1.415       .  A
C830        C831   1.408       .  A
C830        C835   1.452       .  S
C831        C832   1.415       .  A
C831        C838   1.454       .  S
C832        C833   1.410       .  A
C833        C834   1.416       .  A
C833        C836   1.448       .  S
C834        C837   1.450       .  S
C835        N842   1.157       .  T
C836        N841   1.157       .  T
C837        N839   1.157       .  T
C838        N840   1.157       .  T
C843        C844   1.418       .  A
C843        C848   1.420       .  A
C844        C845   1.408       .  A
C844        C849   1.453       .  S
C845        C846   1.414       .  A
C845        C852   1.454       .  S
C846        C847   1.409       .  A
C847        C848   1.419       .  A
C847        C850   1.449       .  S
C849        N856   1.157       .  T
C850        N855   1.157       .  T
C851        N853   1.157       .  T
C852        N854   1.157       .  T
C857        C858   1.426       .  A
C857        C862   1.423       .  A
C858        C859   1.419       .  A
C858        C863   1.452       .  S
C859        C860   1.410       .  A
C859        C866   1.446       .  S
C860        C861   1.410       .  A
C861        C862   1.413       .  A
C861        C864   1.446       .  S
C862        C865   1.452       .  S
C863        N870   1.158       .  T
C864        N869   1.156       .  T
C865        N867   1.158   1_545  T
C866        N868   1.157       .  T
C871        C872   1.406       .  A
C871        C876   1.411       .  A
C872        C873   1.412       .  A
C872        C877   1.453   1_545  S
C873        C874   1.419       .  A
C873        C880   1.447       .  S
C874        C875   1.417       .  A
C875        C876   1.417       .  A
C875        C878   1.446       .  S
C877        N884   1.157       .  T
C878        N883   1.157       .  T
C879        N881   1.157   1_455  T
C880        N882   1.156       .  T
C885        C886   1.412       .  A
C885        C890   1.412       .  A
C886        C887   1.422       .  A
C886        C891   1.446       .  S
C887        C888   1.416       .  A
C887        C894   1.447       .  S
C888        C889   1.416       .  A
C889        C890   1.412       .  A
C889        C892   1.451   1_565  S
C890        C893   1.448       .  S
C891        N898   1.157       .  T
C892        N897   1.157       .  T
C893        N895   1.157       .  T
C894        N896   1.157       .  T
C899        C900   1.417       .  A
C899        C904   1.413       .  A
C900        C901   1.413       .  A
C900        C905   1.453       .  S
C901        C902   1.414       .  A
C901        C908   1.449       .  S
C902        C903   1.418       .  A
C903        C904   1.413       .  A
C903        C906   1.451       .  S
C904        C907   1.452       .  S
C905        N912   1.158       .  T
C906        N911   1.157       .  T
C907        N909   1.157   1_565  T
C908        N910   1.156       .  T
C913        C914   1.416       .  A
C913        C918   1.411       .  A
C914        C915   1.409       .  A
C914        C919   1.453       .  S
C915        C916   1.411       .  A
C915        C922   1.450       .  S
C916        C917   1.416       .  A
C917        C918   1.419       .  A
C917        C920   1.449       .  S
C918        C921   1.448       .  S
C919        N926   1.157       .  T
C920        N925   1.157       .  T
C921        N923   1.157       .  T
C922        N924   1.157       .  T
C927        C928   1.409       .  A
C927        C932   1.411       .  A
C928        C929   1.408       .  A
C928        C933   1.448       .  S
C929        C930   1.416       .  A
C929        C936   1.449   1_565  S
C930        C931   1.416       .  A
C931        C932   1.420       .  A
C931        C934   1.448       .  S
C932        C935   1.446       .  S
C933        N940   1.157       .  T
C934        N939   1.157       .  T
C935        N937   1.157       .  T
C941        C942   1.418       .  A
C941        C946   1.420       .  A
C942        C943   1.414       .  A
C942        C947   1.452       .  S
C943        C944   1.415       .  A
C943        C950   1.450       .  S
C944        C945   1.414       .  A
C945        C946   1.417       .  A
C945        C948   1.448       .  S
C946        C949   1.453       .  S
C947        N954   1.157   1_565  T
C948        N953   1.156       .  T
C950        N952   1.157       .  T
C955        C956   1.418       .  A
C955        C960   1.417       .  A
C956        C957   1.417       .  A
C956        C961   1.451       .  S
C957        C958   1.412       .  A
C957        C964   1.448       .  S
C958        C959   1.412       .  A
C959        C960   1.407       .  A
C959        C962   1.453       .  S
C960        C963   1.452       .  S
C961        N968   1.157       .  T
C962        N967   1.157       .  T
C963        N965   1.157       .  T
C964        N966   1.157       .  T
