geometry optimzed in LAMMPS
_audit_creation_date              2020-11-30 
_audit_creation_method            'lammps2cif' 
_symmetry_space_group_name_H-M    'P1' 
_symmetry_Int_Tables_number       1 
_symmetry_cell_setting            triclinic 
loop_ 
_symmetry_equiv_pos_as_xyz 
  x,y,z 
_cell_length_a                    28.07173313 
_cell_length_b                    27.909867049569804 
_cell_length_c                    27.601937889426054 
_cell_angle_alpha                 90.80036551394507 
_cell_angle_beta                  89.94574235249881 
_cell_angle_gamma                 93.24886853188289 
loop_ 
_atom_site_label 
_atom_site_type_symbol 
_atom_site_fract_x 
_atom_site_fract_y 
_atom_site_fract_z 
_atom_site_charge 
C1          C  0.25075628  0.17147601  0.35365845    -0.03000
C2          C  0.21132067  0.20946139  0.34677926    -0.03000
C3          C  0.29074920  0.21318401  0.34907858    -0.03000
C4          C  0.25110220  0.25113479  0.34207722    -0.03000
C5          C  0.24996822  0.16262810  0.29724017    -0.03000
C6          C  0.21214068  0.20129751  0.29131835    -0.03000
C7          C  0.29210872  0.20332013  0.29285245    -0.03000
C8          C  0.25376240  0.24191724  0.28523398    -0.03000
O9          O  0.44877294  0.15670514  0.01740958    -0.73500
O10         O  0.05100740  0.16091081  0.12124399    -0.74500
O11         O  0.45129493  0.15804469  0.12157096    -0.63100
O12         O  0.04936063  0.15863377  0.01565572    -0.71500
O13         O  0.05244738  0.23781527  0.01700976    -0.71000
O14         O  0.45367657  0.23730806  0.12357529    -0.62300
O15         O  0.05397339  0.24017552  0.12199073    -0.74800
O16         O  0.45224910  0.23618091  0.02022171    -0.73600
Cu17       Cu  0.00022296  0.15582888  0.06894873     1.04600
Cu18       Cu  0.00336684  0.24055171  0.07059847     1.04300
C19         C  0.43482936  0.19660453  0.00208392     0.92700
C20         C  0.06641805  0.20104616  0.14021023     0.91900
C21         C  0.43728941  0.19701813  0.13997812     0.84000
C22         C  0.06497522  0.19838899  0.99776556     0.90300
O23         O  0.20688620  0.50946929  0.02293432    -0.73500
O24         O  0.20695854  0.39805410  0.11533619    -0.74500
O25         O  0.20675497  0.50037049  0.12530166    -0.63100
O26         O  0.20625005  0.40778180  0.01352002    -0.71500
O27         O  0.28560938  0.41327623  0.01259471    -0.71000
O28         O  0.28608750  0.50435621  0.12579258    -0.62300
O29         O  0.28605928  0.40351102  0.11381848    -0.74800
O30         O  0.28606810  0.51383002  0.02459204    -0.73600
Cu31       Cu  0.20380548  0.45377662  0.06933024     1.04000
Cu32       Cu  0.28862596  0.45886647  0.06921317     1.04300
C33         C  0.24688606  0.02928692  0.00955685     0.92700
C34         C  0.24703968  0.38312284  0.12877962     0.91900
C35         C  0.24641948  0.01746055  0.14257526     0.84000
C36         C  0.24589042  0.39575812  0.99585299     0.90300
C37         C  0.24989546  0.34452335  0.16465146    -0.06700
C38         C  0.28443101  0.35142756  0.20048503    -0.17800
C39         C  0.28848128  0.31918514  0.23835835     0.10500
C40         C  0.25808877  0.27643256  0.24062549    -0.06600
C41         C  0.22955352  0.26651842  0.19895592    -0.17800
C42         C  0.22235406  0.30093154  0.16348852     0.10600
S43         S  0.33107845  0.33837845  0.28323444    -0.32800
S44         S  0.17879129  0.28623118  0.11707874    -0.32800
H45         H  0.15236220  0.32651704  0.12676597     0.28600
H46         H  0.33073221  0.38821444  0.27615302     0.28600
H47         H  0.30747488  0.38390675  0.19991811     0.19200
H48         H  0.21080595  0.23238001  0.19361822     0.19200
C49         C  0.33885679  0.19777331  0.26181546    -0.06700
C50         C  0.34671456  0.15497278  0.23583191    -0.17800
C51         C  0.37653732  0.15371451  0.19531598     0.10500
C52         C  0.40342481  0.19567520  0.18169678    -0.06600
C53         C  0.40321348  0.23550532  0.21336971    -0.17800
C54         C  0.37538671  0.23447652  0.25593159     0.10600
S55         S  0.37740066  0.09715525  0.16285785    -0.32800
S56         S  0.40374112  0.26273064  0.30826103    -0.32800
H57         H  0.43512365  0.29494946  0.28346418     0.28600
H58         H  0.37073895  0.11755794  0.11719065     0.28600
H59         H  0.32936508  0.12136131  0.24528688     0.19200
H60         H  0.42922957  0.26507602  0.20790149     0.19200
C61         C  0.09775087  0.20155794  0.18419467    -0.06700
C62         C  0.11418942  0.15795098  0.19986795    -0.17800
C63         C  0.14259468  0.15556227  0.24139728     0.10500
C64         C  0.16388067  0.19810338  0.26257503    -0.06600
C65         C  0.14168125  0.24059447  0.25175527    -0.17800
C66         C  0.10824561  0.24270462  0.21401952     0.10600
S67         S  0.13242454  0.10224193  0.27594097    -0.32800
S68         S  0.08069239  0.29887150  0.20669741    -0.32800
H69         H  0.03425735  0.27725764  0.20308300     0.28600
H70         H  0.12460263  0.07067378  0.23617291     0.28600
H71         H  0.10110996  0.12488248  0.18229466     0.19200
H72         H  0.15318435  0.27337404  0.26972186     0.19200
C73         C  0.24381214  0.12047237  0.26003561    -0.06700
C74         C  0.24765787  0.13485189  0.21134156    -0.17800
C75         C  0.25093077  0.10255530  0.17296758     0.10500
C76         C  0.24628663  0.05316222  0.18188568    -0.06600
C77         C  0.23857393  0.03746487  0.22914747    -0.17800
C78         C  0.23658306  0.06985048  0.26832452     0.10600
S79         S  0.26405902  0.12799478  0.11445931    -0.32800
S80         S  0.21730322  0.04149396  0.32374558    -0.32800
H81         H  0.19957667  0.08232537  0.34388368     0.28600
H82         H  0.28463272  0.08825490  0.09326834     0.28600
H83         H  0.25399401  0.17222033  0.20332578     0.19200
H84         H  0.23289051  0.99927391  0.23540359     0.19200
C85         C  0.24556234  0.29288232  0.37861264    -0.06700
C86         C  0.24529315  0.27874582  0.42743200    -0.17800
C87         C  0.24724473  0.31134408  0.46584222     0.10500
C88         C  0.24577952  0.36037674  0.45646866    -0.06600
C89         C  0.24207180  0.37567321  0.40880368    -0.17800
C90         C  0.24108076  0.34300014  0.36967748     0.10600
S91         S  0.25678870  0.28778553  0.52520434    -0.32800
S92         S  0.22580891  0.36949485  0.31320127    -0.32800
H93         H  0.20540498  0.32745960  0.29338676     0.28600
H94         H  0.28648921  0.32632465  0.04226793     0.28600
H95         H  0.24878419  0.24177166  0.43602959     0.19200
H96         H  0.23871012  0.41354961  0.40214815     0.19200
C97         C  0.39875566  0.19858863  0.46285328    -0.06700
C98         C  0.37007102  0.23779785  0.46348908    -0.17800
C99         C  0.34458586  0.24991941  0.42261371     0.10500
C100        C  0.33499628  0.21532828  0.38466801    -0.06600
C101        C  0.36750765  0.17879267  0.38216647    -0.17800
C102        C  0.39907861  0.16977722  0.42043572     0.10600
S103        S  0.35021106  0.31353758  0.41349303    -0.32800
S104        S  0.44159692  0.12400678  0.41320111    -0.32800
H105        H  0.43273756  0.11428039  0.86368885     0.28600
H106        H  0.33625674  0.30693457  0.36650955     0.28600
H107        H  0.37370539  0.26369075  0.49313348     0.19200
H108        H  0.37092551  0.15984230  0.34847849     0.19200
C109        C  0.16272828  0.20852933  0.37497169    -0.06700
C110        C  0.13982115  0.16405130  0.38654473    -0.17800
C111        C  0.10736467  0.15889063  0.42527823     0.10500
C112        C  0.09685287  0.19965328  0.45398364    -0.06600
C113        C  0.11325469  0.24470879  0.43683698    -0.17800
C114        C  0.14203558  0.24933734  0.39542301     0.10600
S115        S  0.07994039  0.09971758  0.93393534    -0.32800
S116        S  0.13579171  0.30271878  0.36126022    -0.32800
H117        H  0.12557358  0.33299634  0.40065453     0.28600
H118        H  0.09581303  0.09523146  0.98168783     0.28600
H119        H  0.15050673  0.13219912  0.36869670     0.19200
H120        H  0.10032240  0.27678621  0.45354250     0.19200
C121        C  0.24933416  0.06807781  0.47365770    -0.06700
C122        C  0.28143498  0.06310941  0.43561377    -0.17800
C123        C  0.28480139  0.09509996  0.39715346     0.10500
C124        C  0.25491585  0.13537350  0.39620434    -0.06600
C125        C  0.22805800  0.14295931  0.43865264    -0.17800
C126        C  0.22290637  0.10942743  0.47580000     0.10600
S127        S  0.32543010  0.07581301  0.35110089    -0.32800
S128        S  0.18284373  0.12382562  0.02449502    -0.32800
H129        H  0.19062410  0.08614138  0.05575178     0.28600
H130        H  0.31570190  0.11136970  0.31992825     0.28600
H131        H  0.30292153  0.53197332  0.43462068     0.19200
H132        H  0.20955949  0.17511826  0.44372742     0.19200
C133        C  0.25072334  0.17148146  0.85369024    -0.03000
C134        C  0.21130203  0.20949813  0.84678897    -0.03000
C135        C  0.29072361  0.21318862  0.84913366    -0.03000
C136        C  0.25110044  0.25115630  0.84209284    -0.03000
C137        C  0.24996672  0.16263098  0.79728338    -0.03000
C138        C  0.21215369  0.20133797  0.79132441    -0.03000
C139        C  0.29213235  0.20331288  0.79291897    -0.03000
C140        C  0.25380999  0.24192525  0.78526341    -0.03000
O141        O  0.44882116  0.15664813  0.51739662    -0.73500
O142        O  0.05102304  0.16090783  0.62125379    -0.74500
O143        O  0.45129267  0.15796579  0.62158292    -0.63100
O144        O  0.04942351  0.15859640  0.51568401    -0.71500
O145        O  0.05235251  0.23777327  0.51689075    -0.71000
O146        O  0.45369026  0.23722898  0.62358344    -0.62300
O147        O  0.05400443  0.24017213  0.62188503    -0.74800
O148        O  0.45217607  0.23611962  0.52026439    -0.73600
Cu149      Cu  0.00025660  0.15578320  0.56895777     1.04600
Cu150      Cu  0.00333644  0.24050350  0.57055358     1.04300
C151        C  0.43481695  0.19653685  0.50209896     0.92700
C152        C  0.06643948  0.20106530  0.64016338     0.91900
C153        C  0.43728828  0.19694393  0.63998867     0.84000
C154        C  0.06495899  0.19834284  0.49771773     0.90300
O155        O  0.20687673  0.50950180  0.52291886    -0.73500
O156        O  0.20699050  0.39802625  0.61535180    -0.74500
O157        O  0.20679422  0.50041742  0.62529230    -0.63100
O158        O  0.20628552  0.40775309  0.51354007    -0.71500
O159        O  0.28564195  0.41337014  0.51249930    -0.71000
O160        O  0.28612470  0.50430480  0.62579246    -0.62300
O161        O  0.28608419  0.40341425  0.61369571    -0.74800
O162        O  0.28605696  0.51390406  0.52462945    -0.73600
Cu163      Cu  0.20382371  0.45378270  0.56933215     1.04000
Cu164      Cu  0.28864008  0.45887341  0.56916813     1.04300
C165        C  0.24688459  0.02935152  0.50957797     0.92700
C166        C  0.24707686  0.38303107  0.62870737     0.91900
C167        C  0.24647491  0.01747545  0.64255948     0.84000
C168        C  0.24592643  0.39577431  0.49583111     0.90300
C169        C  0.24997262  0.34441062  0.66458499    -0.06700
C170        C  0.28453616  0.35133970  0.70040344    -0.17800
C171        C  0.28857759  0.31914819  0.73833837     0.10500
C172        C  0.25819303  0.27639554  0.74063205    -0.06600
C173        C  0.22970283  0.26641649  0.69895802    -0.17800
C174        C  0.22244142  0.30079778  0.66348543     0.10600
S175        S  0.33113756  0.33833406  0.78326375    -0.32800
S176        S  0.17875507  0.28600242  0.61721958    -0.32800
H177        H  0.15251568  0.32646789  0.62665638     0.28600
H178        H  0.33165412  0.38811322  0.77556828     0.28600
H179        H  0.30757435  0.38381669  0.69978215     0.19200
H180        H  0.21097063  0.23226767  0.69365240     0.19200
C181        C  0.33891755  0.19775878  0.76191209    -0.06700
C182        C  0.34679714  0.15494287  0.73596625    -0.17800
C183        C  0.37655949  0.15367089  0.69540297     0.10500
C184        C  0.40341563  0.19562876  0.68171563    -0.06600
C185        C  0.40318357  0.23549789  0.71334359    -0.17800
C186        C  0.37542792  0.23447571  0.75596058     0.10600
S187        S  0.37735259  0.09709756  0.66296228    -0.32800
S188        S  0.40394682  0.26263906  0.80825633    -0.32800
H189        H  0.43537728  0.29478440  0.78342180     0.28600
H190        H  0.37076414  0.11748008  0.61727374     0.28600
H191        H  0.32946313  0.12133348  0.74544265     0.19200
H192        H  0.42916470  0.26508680  0.70781630     0.19200
C193        C  0.09775584  0.20162529  0.68416239    -0.06700
C194        C  0.11413327  0.15802755  0.69992961    -0.17800
C195        C  0.14258747  0.15568384  0.74142983     0.10500
C196        C  0.16390791  0.19822626  0.76254275    -0.06600
C197        C  0.14172768  0.24073109  0.75165978    -0.17800
C198        C  0.10827377  0.24280888  0.71392312     0.10600
S199        S  0.13267753  0.10234134  0.77597727    -0.32800
S200        S  0.08065509  0.29894225  0.70654998    -0.32800
H201        H  0.03423671  0.27728086  0.70293923     0.28600
H202        H  0.12433830  0.07079141  0.73628659     0.28600
H203        H  0.10101819  0.12494370  0.68241443     0.19200
H204        H  0.15320420  0.27352083  0.76961517     0.19200
C205        C  0.24388443  0.12042670  0.76010582    -0.06700
C206        C  0.24777344  0.13482635  0.71142699    -0.17800
C207        C  0.25104747  0.10257276  0.67302066     0.10500
C208        C  0.24639904  0.05316593  0.68189140    -0.06600
C209        C  0.23877197  0.03742612  0.72915280    -0.17800
C210        C  0.23671568  0.06977464  0.76836134     0.10600
S211        S  0.26420901  0.12811648  0.61455515    -0.32800
S212        S  0.21736591  0.04129310  0.82371588    -0.32800
H213        H  0.19954145  0.08204660  0.84396632     0.28600
H214        H  0.28447939  0.08829502  0.59318994     0.28600
H215        H  0.25414208  0.17219370  0.70344362     0.19200
H216        H  0.23314829  0.99922261  0.73537465     0.19200
C217        C  0.24554150  0.29291959  0.87859635    -0.06700
C218        C  0.24530155  0.27877912  0.92740142    -0.17800
C219        C  0.24723392  0.31135971  0.96580925     0.10500
C220        C  0.24573376  0.36039140  0.95645966    -0.06600
C221        C  0.24194397  0.37569651  0.90879774    -0.17800
C222        C  0.24098307  0.34302716  0.86966048     0.10600
S223        S  0.25664919  0.28774187  0.02515942    -0.32800
S224        S  0.22570973  0.36948243  0.81316070    -0.32800
H225        H  0.20545478  0.32738618  0.79335760     0.28600
H226        H  0.28661021  0.32641856  0.54223859     0.28600
H227        H  0.24877380  0.24179737  0.93599504     0.19200
H228        H  0.23851813  0.41356579  0.90215409     0.19200
C229        C  0.39875122  0.19865989  0.96285590    -0.06700
C230        C  0.37005743  0.23786713  0.96350196    -0.17800
C231        C  0.34457505  0.24997636  0.92261752     0.10500
C232        C  0.33495515  0.21535352  0.88471360    -0.06600
C233        C  0.36745826  0.17883451  0.88219821    -0.17800
C234        C  0.39907531  0.16986470  0.92042227     0.10600
S235        S  0.35035264  0.31355731  0.91333060    -0.32800
S236        S  0.44160464  0.12413475  0.91307405    -0.32800
H237        H  0.43116080  0.11236880  0.36448383     0.28600
H238        H  0.33622079  0.30679079  0.86642976     0.28600
H239        H  0.37371415  0.26377740  0.99312914     0.19200
H240        H  0.37082967  0.15985055  0.84852918     0.19200
C241        C  0.16270225  0.20859135  0.87498266    -0.06700
C242        C  0.13981643  0.16411144  0.88657659    -0.17800
C243        C  0.10734661  0.15896053  0.92529955     0.10500
C244        C  0.09685495  0.19971603  0.95402249    -0.06600
C245        C  0.11324033  0.24477440  0.93687000    -0.17800
C246        C  0.14199617  0.24940316  0.89543403     0.10600
S247        S  0.08002257  0.09962091  0.43395242    -0.32800
S248        S  0.13563494  0.30274796  0.86124001    -0.32800
H249        H  0.12568911  0.33307427  0.90068519     0.28600
H250        H  0.09573902  0.09520573  0.48176630     0.28600
H251        H  0.15054727  0.13224865  0.86875887     0.19200
H252        H  0.10028950  0.27684902  0.95356758     0.19200
C253        C  0.24930215  0.06798354  0.97361390    -0.06700
C254        C  0.28133399  0.06296853  0.93551796    -0.17800
C255        C  0.28473814  0.09500228  0.89709409     0.10500
C256        C  0.25487633  0.13530820  0.89618172    -0.06600
C257        C  0.22804965  0.14289149  0.93864441    -0.17800
C258        C  0.22291402  0.10936302  0.97579458     0.10600
S259        S  0.32545669  0.07578285  0.85109024    -0.32800
S260        S  0.18275573  0.12381062  0.52445030    -0.32800
H261        H  0.19086149  0.08631765  0.55583902     0.28600
H262        H  0.31568799  0.11136958  0.81998687     0.28600
H263        H  0.30279991  0.53181518  0.93450398     0.19200
H264        H  0.20958813  0.17507453  0.94373420     0.19200
C265        C  0.25075462  0.67147558  0.35365908    -0.03000
C266        C  0.21131777  0.70945991  0.34678025    -0.03000
C267        C  0.29074671  0.71318493  0.34908067    -0.03000
C268        C  0.25109892  0.75113436  0.34207881    -0.03000
C269        C  0.24996756  0.66262845  0.29724078    -0.03000
C270        C  0.21213848  0.70129584  0.29131937    -0.03000
C271        C  0.29210760  0.70332116  0.29285462    -0.03000
C272        C  0.25376010  0.74191697  0.28523635    -0.03000
O273        O  0.44877202  0.65670450  0.01741201    -0.73500
O274        O  0.05100639  0.66091196  0.12124270    -0.74500
O275        O  0.45129774  0.65804328  0.12157524    -0.63100
O276        O  0.04936424  0.65863383  0.01565387    -0.71500
O277        O  0.05245118  0.73781551  0.01700925    -0.71000
O278        O  0.45367844  0.73730659  0.12357887    -0.62300
O279        O  0.05397329  0.74017676  0.12199007    -0.74800
O280        O  0.45224913  0.73618011  0.02022417    -0.73600
Cu281      Cu  0.00022393  0.65582909  0.06894666     1.04600
Cu282      Cu  0.00336816  0.74055244  0.07059611     1.04300
C283        C  0.43482980  0.69660420  0.00208538     0.92700
C284        C  0.06641717  0.70104698  0.14020941     0.91900
C285        C  0.43729270  0.69701664  0.13998302     0.84000
C286        C  0.06497984  0.69838966  0.99776494     0.90300
O287        O  0.20688447  0.00947251  0.02293846    -0.73500
O288        O  0.20696026  0.89805305  0.11533880    -0.74500
O289        O  0.20675585  0.00036835  0.12530573    -0.63100
O290        O  0.20624821  0.90778393  0.01352127    -0.71500
O291        O  0.28560739  0.91327793  0.01259351    -0.71000
O292        O  0.28608844  0.00435551  0.12579287    -0.62300
O293        O  0.28606070  0.90351048  0.11382002    -0.74800
O294        O  0.28606627  0.01383204  0.02459146    -0.73600
Cu295      Cu  0.20380547  0.95377716  0.06933337     1.04000
Cu296      Cu  0.28862552  0.95886714  0.06921304     1.04300
C297        C  0.24688837  0.52928441  0.00955573     0.92700
C298        C  0.24704148  0.88312199  0.12878230     0.91900
C299        C  0.24641814  0.51746290  0.14257260     0.84000
C300        C  0.24588791  0.89576063  0.99585227     0.90300
C301        C  0.24989701  0.84452253  0.16465520    -0.06700
C302        C  0.28443261  0.85142654  0.20048916    -0.17800
C303        C  0.28848183  0.81918438  0.23836300     0.10500
C304        C  0.25808735  0.77643334  0.24063067    -0.06600
C305        C  0.22955165  0.76651953  0.19896251    -0.17800
C306        C  0.22235395  0.80093123  0.16349406     0.10600
S307        S  0.33108068  0.83837629  0.28323779    -0.32800
S308        S  0.17879436  0.78622538  0.11708297    -0.32800
H309        H  0.15236939  0.82651724  0.12675434     0.28600
H310        H  0.33072512  0.88821281  0.27616368     0.28600
H311        H  0.30747768  0.88390491  0.19992192     0.19200
H312        H  0.21080411  0.73238113  0.19362538     0.19200
C313        C  0.33885746  0.69777333  0.26181922    -0.06700
C314        C  0.34671611  0.65497223  0.23583640    -0.17800
C315        C  0.37654036  0.65371338  0.19532141     0.10500
C316        C  0.40342897  0.69567353  0.18170277    -0.06600
C317        C  0.40321742  0.73550354  0.21337566    -0.17800
C318        C  0.37538885  0.73447562  0.25593645     0.10600
S319        S  0.37739997  0.59715573  0.16286002    -0.32800
S320        S  0.40374451  0.76272828  0.30826587    -0.32800
H321        H  0.43510671  0.79496569  0.28346751     0.28600
H322        H  0.37073540  0.61756202  0.11719499     0.28600
H323        H  0.32936526  0.62136105  0.24528990     0.19200
H324        H  0.42923468  0.76507341  0.20790851     0.19200
C325        C  0.09774920  0.70155716  0.18419436    -0.06700
C326        C  0.11418768  0.65794933  0.19986508    -0.17800
C327        C  0.14259126  0.65555754  0.24139553     0.10500
C328        C  0.16387708  0.69809845  0.26257651    -0.06600
C329        C  0.14167721  0.74058967  0.25175884    -0.17800
C330        C  0.10824374  0.74270227  0.21402137     0.10600
S331        S  0.13241800  0.60223389  0.27593531    -0.32800
S332        S  0.08069876  0.79887286  0.20669532    -0.32800
H333        H  0.03426137  0.77726521  0.20307921     0.28600
H334        H  0.12455069  0.57067010  0.23617096     0.28600
H335        H  0.10111003  0.62488254  0.18228760     0.19200
H336        H  0.15318117  0.77336859  0.26972700     0.19200
C337        C  0.24381244  0.62047486  0.26003433    -0.06700
C338        C  0.24765960  0.63485531  0.21134077    -0.17800
C339        C  0.25093071  0.60255919  0.17296596     0.10500
C340        C  0.24628473  0.55316554  0.18188295    -0.06600
C341        C  0.23857379  0.53746805  0.22914517    -0.17800
C342        C  0.23658355  0.56985360  0.26832243     0.10600
S343        S  0.26405874  0.62800160  0.11445906    -0.32800
S344        S  0.21730429  0.54149955  0.32374417    -0.32800
H345        H  0.19957108  0.58233059  0.34387656     0.28600
H346        H  0.28460842  0.58825461  0.09325550     0.28600
H347        H  0.25399725  0.67222375  0.20332605     0.19200
H348        H  0.23289084  0.49927713  0.23540156     0.19200
C349        C  0.24556227  0.79288306  0.37861329    -0.06700
C350        C  0.24529333  0.77874644  0.42743231    -0.17800
C351        C  0.24724608  0.81134458  0.46584228     0.10500
C352        C  0.24578181  0.86037725  0.45646949    -0.06600
C353        C  0.24207569  0.87567450  0.40880472    -0.17800
C354        C  0.24108356  0.84300167  0.36967822     0.10600
S355        S  0.25678848  0.78778610  0.52520403    -0.32800
S356        S  0.22581173  0.86949819  0.31320268    -0.32800
H357        H  0.20540133  0.82746548  0.29338727     0.28600
H358        H  0.28647820  0.82633357  0.04227140     0.28600
H359        H  0.24878155  0.74177154  0.43603003     0.19200
H360        H  0.23871532  0.91355120  0.40214969     0.19200
C361        C  0.39875525  0.69858850  0.46285371    -0.06700
C362        C  0.37007363  0.73780054  0.46348957    -0.17800
C363        C  0.34458677  0.74992300  0.42261511     0.10500
C364        C  0.33499406  0.71533127  0.38467014    -0.06600
C365        C  0.36750501  0.67879637  0.38216676    -0.17800
C366        C  0.39907578  0.66977822  0.42043494     0.10600
S367        S  0.35021596  0.81354084  0.41349222    -0.32800
S368        S  0.44158722  0.62400216  0.41319689    -0.32800
H369        H  0.43273522  0.61427496  0.86369234     0.28600
H370        H  0.33625401  0.80693516  0.36651181     0.28600
H371        H  0.37371120  0.76369405  0.49313321     0.19200
H372        H  0.37092079  0.65984671  0.34847820     0.19200
C373        C  0.16272454  0.70852840  0.37497186    -0.06700
C374        C  0.13981453  0.66405083  0.38654322    -0.17800
C375        C  0.10736081  0.65889051  0.42527959     0.10500
C376        C  0.09685092  0.69965367  0.45398499    -0.06600
C377        C  0.11325331  0.74470864  0.43683847    -0.17800
C378        C  0.14203402  0.74933703  0.39542469     0.10600
S379        S  0.07993709  0.59972241  0.93392693    -0.32800
S380        S  0.13579748  0.80272217  0.36126535    -0.32800
H381        H  0.12553447  0.83299195  0.40065156     0.28600
H382        H  0.09581929  0.59522970  0.98167523     0.28600
H383        H  0.15049691  0.63219858  0.36869268     0.19200
H384        H  0.10032364  0.77678608  0.45354623     0.19200
C385        C  0.24932709  0.56807237  0.47365237    -0.06700
C386        C  0.28142519  0.56310150  0.43560697    -0.17800
C387        C  0.28479792  0.59509687  0.39715138     0.10500
C388        C  0.25491278  0.63537082  0.39620240    -0.06600
C389        C  0.22805300  0.64295514  0.43864898    -0.17800
C390        C  0.22290229  0.60942391  0.47579651     0.10600
S391        S  0.32543633  0.57581679  0.35110547    -0.32800
S392        S  0.18284672  0.62382077  0.02449909    -0.32800
H393        H  0.19062847  0.58613557  0.05575454     0.28600
H394        H  0.31569974  0.61136757  0.31992929     0.28600
H395        H  0.30293432  0.03198356  0.43462929     0.19200
H396        H  0.20955628  0.67511517  0.44372431     0.19200
C397        C  0.25072201  0.67148183  0.85369005    -0.03000
C398        C  0.21130110  0.70949915  0.84678730    -0.03000
C399        C  0.29072196  0.71318919  0.84913415    -0.03000
C400        C  0.25109897  0.75115787  0.84209160    -0.03000
C401        C  0.24996605  0.66263195  0.79728304    -0.03000
C402        C  0.21215240  0.70133863  0.79132278    -0.03000
C403        C  0.29213142  0.70331425  0.79291987    -0.03000
C404        C  0.25380884  0.74192617  0.78526289    -0.03000
O405        O  0.44882000  0.65664612  0.51739853    -0.73500
O406        O  0.05101562  0.66090719  0.62125675    -0.74500
O407        O  0.45129561  0.65796596  0.62158823    -0.63100
O408        O  0.04942314  0.65859871  0.51568687    -0.71500
O409        O  0.05235144  0.73777561  0.51689085    -0.71000
O410        O  0.45369006  0.73722897  0.62358260    -0.62300
O411        O  0.05400369  0.74017169  0.62188305    -0.74800
O412        O  0.45218015  0.73611765  0.52026226    -0.73600
Cu413      Cu  0.00025427  0.65578415  0.56895756     1.04600
Cu414      Cu  0.00333645  0.74050482  0.57055342     1.04300
C415        C  0.43481802  0.69653513  0.50209876     0.92700
C416        C  0.06643300  0.70106471  0.64016527     0.91900
C417        C  0.43728891  0.69694492  0.63999098     0.84000
C418        C  0.06495806  0.69834465  0.49771932     0.90300
O419        O  0.20687948  0.00950455  0.52292036    -0.73500
O420        O  0.20699499  0.89802488  0.61535203    -0.74500
O421        O  0.20679335  0.00041684  0.62529191    -0.63100
O422        O  0.20628652  0.90775389  0.51353979    -0.71500
O423        O  0.28564294  0.91336806  0.51250330    -0.71000
O424        O  0.28612385  0.00430696  0.62579230    -0.62300
O425        O  0.28608863  0.90341691  0.61369814    -0.74800
O426        O  0.28605948  0.01390309  0.52463115    -0.73600
Cu427      Cu  0.20382530  0.95378277  0.56933246     1.04000
Cu428      Cu  0.28864124  0.95887367  0.56917019     1.04300
C429        C  0.24688083  0.52934937  0.50957528     0.92700
C430        C  0.24708223  0.88303160  0.62870836     0.91900
C431        C  0.24647636  0.51747343  0.64256117     0.84000
C432        C  0.24592775  0.89577381  0.49583283     0.90300
C433        C  0.24998021  0.84440970  0.66458380    -0.06700
C434        C  0.28454587  0.85133587  0.70040059    -0.17800
C435        C  0.28858296  0.81914590  0.73833742     0.10500
C436        C  0.25819449  0.77639592  0.74063192    -0.06600
C437        C  0.22970589  0.76641689  0.69895691    -0.17800
C438        C  0.22244765  0.80079810  0.66348368     0.10600
S439        S  0.33114188  0.83833154  0.78326384    -0.32800
S440        S  0.17876261  0.78600579  0.61721641    -0.32800
H441        H  0.15251734  0.82646445  0.62666684     0.28600
H442        H  0.33166252  0.88811035  0.77556548     0.28600
H443        H  0.30758747  0.88381049  0.69977792     0.19200
H444        H  0.21097229  0.73226866  0.69365143     0.19200
C445        C  0.33891779  0.69776181  0.76191566    -0.06700
C446        C  0.34679843  0.65494619  0.73597138    -0.17800
C447        C  0.37655909  0.65367465  0.69540723     0.10500
C448        C  0.40341472  0.69563224  0.68171801    -0.06600
C449        C  0.40318074  0.73550289  0.71334457    -0.17800
C450        C  0.37542714  0.73447963  0.75596345     0.10600
S451        S  0.37734760  0.59710212  0.66296592    -0.32800
S452        S  0.40395205  0.76263576  0.80826007    -0.32800
H453        H  0.43538111  0.79478270  0.78342583     0.28600
H454        H  0.37076587  0.61748670  0.61727727     0.28600
H455        H  0.32946491  0.62133688  0.74544825     0.19200
H456        H  0.42916037  0.76509282  0.70781593     0.19200
C457        C  0.09774523  0.70162526  0.68416648    -0.06700
C458        C  0.11411323  0.65802693  0.69994113    -0.17800
C459        C  0.14257780  0.65568497  0.74143371     0.10500
C460        C  0.16390492  0.69822807  0.76254135    -0.06600
C461        C  0.14172858  0.74073492  0.75165407    -0.17800
C462        C  0.10827158  0.74281201  0.71391956     0.10600
S463        S  0.13268377  0.60233518  0.77597140    -0.32800
S464        S  0.08065571  0.79894658  0.70654099    -0.32800
H465        H  0.03423600  0.77728763  0.70293217     0.28600
H466        H  0.12441114  0.57078709  0.73626719     0.28600
H467        H  0.10098747  0.62494192  0.68243509     0.19200
H468        H  0.15321035  0.77352606  0.76960478     0.19200
C469        C  0.24388599  0.62042725  0.76010620    -0.06700
C470        C  0.24777484  0.63482539  0.71142695    -0.17800
C471        C  0.25104895  0.60257015  0.67302185     0.10500
C472        C  0.24640198  0.55316375  0.68189399    -0.06600
C473        C  0.23877625  0.53742538  0.72915629    -0.17800
C474        C  0.23671950  0.56977545  0.76836373     0.10600
S475        S  0.26420724  0.62811010  0.61455434    -0.32800
S476        S  0.21736741  0.54129695  0.82371924    -0.32800
H477        H  0.19954102  0.58205101  0.84396644     0.28600
H478        H  0.28449325  0.58829315  0.59319716     0.28600
H479        H  0.25414223  0.67219257  0.70344218     0.19200
H480        H  0.23315251  0.49922220  0.73537956     0.19200
C481        C  0.24553758  0.79292344  0.87859303    -0.06700
C482        C  0.24529692  0.77878276  0.92739779    -0.17800
C483        C  0.24723142  0.81136267  0.96580603     0.10500
C484        C  0.24573008  0.86039468  0.95645783    -0.06600
C485        C  0.24194112  0.87570084  0.90879606    -0.17800
C486        C  0.24098167  0.84303228  0.86965770     0.10600
S487        S  0.25665536  0.78774210  0.02515368    -0.32800
S488        S  0.22571832  0.86949207  0.81315696    -0.32800
H489        H  0.20545491  0.82740010  0.79335174     0.28600
H490        H  0.28662212  0.82641294  0.54223171     0.28600
H491        H  0.24876795  0.74180036  0.93599087     0.19200
H492        H  0.23851683  0.91357057  0.90215328     0.19200
C493        C  0.39875366  0.69866099  0.96285531    -0.06700
C494        C  0.37006571  0.73787279  0.96349649    -0.17800
C495        C  0.34457754  0.74997674  0.92261406     0.10500
C496        C  0.33495320  0.71535050  0.88471470    -0.06600
C497        C  0.36745501  0.67882969  0.88220090    -0.17800
C498        C  0.39907406  0.66986163  0.92042432     0.10600
S499        S  0.35034531  0.81355641  0.91332163    -0.32800
S500        S  0.44160541  0.62413314  0.91307627    -0.32800
H501        H  0.43121335  0.61243624  0.36445043     0.28600
H502        H  0.33621226  0.80677880  0.86642302     0.28600
H503        H  0.37372736  0.76378754  0.99311925     0.19200
H504        H  0.37082562  0.65984496  0.84853223     0.19200
C505        C  0.16270263  0.70859370  0.87497973    -0.06700
C506        C  0.13981557  0.66411467  0.88657160    -0.17800
C507        C  0.10734793  0.65896379  0.92529581     0.10500
C508        C  0.09686072  0.69971834  0.95402245    -0.06600
C509        C  0.11324843  0.74477751  0.93687176    -0.17800
C510        C  0.14200081  0.74940585  0.89543330     0.10600
S511        S  0.08002277  0.59962011  0.43396160    -0.32800
S512        S  0.13563255  0.80274766  0.86123656    -0.32800
H513        H  0.12577473  0.83308664  0.90069892     0.28600
H514        H  0.09574276  0.59521064  0.48177511     0.28600
H515        H  0.15054296  0.63225262  0.86875035     0.19200
H516        H  0.10029904  0.77685305  0.95356917     0.19200
C517        C  0.24930558  0.56798262  0.97361525    -0.06700
C518        C  0.28133953  0.56297031  0.93552136    -0.17800
C519        C  0.28474088  0.59500253  0.89709625     0.10500
C520        C  0.25487626  0.63530736  0.89618227    -0.06600
C521        C  0.22804870  0.64288922  0.93864517    -0.17800
C522        C  0.22291522  0.60936044  0.97579597     0.10600
S523        S  0.32545861  0.57577949  0.85109314    -0.32800
S524        S  0.18276085  0.62381398  0.52445201    -0.32800
H525        H  0.19085405  0.58631262  0.55583447     0.28600
H526        H  0.31568383  0.61136237  0.81998768     0.28600
H527        H  0.30279170  0.03181163  0.93449901     0.19200
H528        H  0.20958582  0.67507159  0.94373462     0.19200
C529        C  0.75075429  0.17147507  0.35365912    -0.03000
C530        C  0.71131748  0.20945954  0.34678035    -0.03000
C531        C  0.79074633  0.21318439  0.34908071    -0.03000
C532        C  0.75109863  0.25113388  0.34207899    -0.03000
C533        C  0.74996750  0.16262805  0.29724074    -0.03000
C534        C  0.71213852  0.20129553  0.29131937    -0.03000
C535        C  0.79210738  0.20332080  0.29285468    -0.03000
C536        C  0.75376001  0.24191669  0.28523639    -0.03000
O537        O  0.94877172  0.15670534  0.01741160    -0.73500
O538        O  0.55100559  0.16091207  0.12124285    -0.74500
O539        O  0.95129705  0.15804250  0.12157502    -0.63100
O540        O  0.54936337  0.15863484  0.01565459    -0.71500
O541        O  0.55245078  0.23781649  0.01700996    -0.71000
O542        O  0.95367807  0.23730583  0.12357925    -0.62300
O543        O  0.55397296  0.24017684  0.12199065    -0.74800
O544        O  0.95224739  0.23618091  0.02022476    -0.73600
Cu545      Cu  0.50022299  0.15582984  0.06894661     1.04600
Cu546      Cu  0.50336765  0.24055308  0.07059666     1.04300
C547        C  0.93482863  0.19660491  0.00208543     0.92700
C548        C  0.56641711  0.20104690  0.14020944     0.91900
C549        C  0.93729192  0.19701580  0.13998282     0.84000
C550        C  0.56497931  0.19839050  0.99776578     0.90300
O551        O  0.70688416  0.50947124  0.02293858    -0.73500
O552        O  0.70695990  0.39805410  0.11534081    -0.74500
O553        O  0.70675645  0.50036925  0.12530620    -0.63100
O554        O  0.70624793  0.40778227  0.01352276    -0.71500
O555        O  0.78560712  0.41327616  0.01259520    -0.71000
O556        O  0.78608909  0.50435629  0.12579238    -0.62300
O557        O  0.78606045  0.40351125  0.11382140    -0.74800
O558        O  0.78606601  0.51383023  0.02459106    -0.73600
Cu559      Cu  0.70380519  0.45377689  0.06933445     1.04000
Cu560      Cu  0.78862547  0.45886660  0.06921359     1.04300
C561        C  0.74688861  0.02928431  0.00955582     0.92700
C562        C  0.74704124  0.38312315  0.12878403     0.91900
C563        C  0.74641719  0.01746231  0.14257264     0.84000
C564        C  0.74588776  0.39575892  0.99585379     0.90300
C565        C  0.74989697  0.34452360  0.16465640    -0.06700
C566        C  0.78443251  0.35142732  0.20049023    -0.17800
C567        C  0.78848205  0.31918471  0.23836354     0.10500
C568        C  0.75808769  0.27643330  0.24063058    -0.06600
C569        C  0.72955223  0.26651980  0.19896191    -0.17800
C570        C  0.72235444  0.30093222  0.16349406     0.10600
S571        S  0.83108012  0.33837742  0.28323906    -0.32800
S572        S  0.67879396  0.28622919  0.11708307    -0.32800
H573        H  0.65236656  0.32651768  0.12676280     0.28600
H574        H  0.83073101  0.38821367  0.27616050     0.28600
H575        H  0.80747703  0.38390604  0.19992328     0.19200
H576        H  0.71080479  0.23238140  0.19362422     0.19200
C577        C  0.83885699  0.19777288  0.26181907    -0.06700
C578        C  0.84671580  0.15497159  0.23583666    -0.17800
C579        C  0.87653965  0.15371258  0.19532138     0.10500
C580        C  0.90342782  0.19567275  0.18170218    -0.06600
C581        C  0.90321563  0.23550329  0.21337426    -0.17800
C582        C  0.87538820  0.23447517  0.25593579     0.10600
S583        S  0.87739907  0.09715497  0.16286003    -0.32800
S584        S  0.90374248  0.26272953  0.30826534    -0.32800
H585        H  0.93513846  0.29493614  0.28346959     0.28600
H586        H  0.87073588  0.11756125  0.11719473     0.28600
H587        H  0.82936524  0.12136033  0.24529066     0.19200
H588        H  0.92923090  0.26507439  0.20790526     0.19200
C589        C  0.59775038  0.20155678  0.18419351    -0.06700
C590        C  0.61419006  0.15794904  0.19986333    -0.17800
C591        C  0.64259322  0.15555727  0.24139410     0.10500
C592        C  0.66387800  0.19809811  0.26257577    -0.06600
C593        C  0.64167804  0.24058911  0.25175828    -0.17800
C594        C  0.60824487  0.24270178  0.21402074     0.10600
S595        S  0.63241863  0.10223462  0.27593491    -0.32800
S596        S  0.58069957  0.29887224  0.20669540    -0.32800
H597        H  0.53426216  0.27726425  0.20308176     0.28600
H598        H  0.62455616  0.07067007  0.23617041     0.28600
H599        H  0.60111297  0.12488214  0.18228548     0.19200
H600        H  0.65318152  0.27336789  0.26972689     0.19200
C601        C  0.74381239  0.12047454  0.26003403    -0.06700
C602        C  0.74765994  0.13485497  0.21134044    -0.17800
C603        C  0.75093023  0.10255862  0.17296571     0.10500
C604        C  0.74628311  0.05316509  0.18188266    -0.06600
C605        C  0.73857149  0.03746774  0.22914463    -0.17800
C606        C  0.73658245  0.06985326  0.26832190     0.10600
S607        S  0.76405889  0.12800021  0.11445878    -0.32800
S608        S  0.71730357  0.04149883  0.32374348    -0.32800
H609        H  0.69957141  0.08232995  0.34387685     0.28600
H610        H  0.78461179  0.08825397  0.09325736     0.28600
H611        H  0.75399813  0.17222340  0.20332563     0.19200
H612        H  0.73288772  0.99927689  0.23540090     0.19200
C613        C  0.74556166  0.29288222  0.37861373    -0.06700
C614        C  0.74529317  0.27874554  0.42743273    -0.17800
C615        C  0.74724526  0.31134368  0.46584268     0.10500
C616        C  0.74578080  0.36037631  0.45646997    -0.06600
C617        C  0.74207409  0.37567349  0.40880523    -0.17800
C618        C  0.74108222  0.34300065  0.36967874     0.10600
S619        S  0.75678670  0.28778568  0.52520463    -0.32800
S620        S  0.72581044  0.36949682  0.31320306    -0.32800
H621        H  0.70540141  0.32746368  0.29338750     0.28600
H622        H  0.78650006  0.32632389  0.04225885     0.28600
H623        H  0.74878211  0.24177080  0.43603041     0.19200
H624        H  0.73871332  0.41355011  0.40215021     0.19200
C625        C  0.89875358  0.19858749  0.46285432    -0.06700
C626        C  0.87007231  0.23779984  0.46348967    -0.17800
C627        C  0.84458624  0.24992238  0.42261477     0.10500
C628        C  0.83499339  0.21533042  0.38467012    -0.06600
C629        C  0.86750372  0.17879505  0.38216720    -0.17800
C630        C  0.89907455  0.16977736  0.42043544     0.10600
S631        S  0.85021601  0.31354005  0.41349127    -0.32800
S632        S  0.94158898  0.12400440  0.41319623    -0.32800
H633        H  0.93273526  0.11427735  0.86369022     0.28600
H634        H  0.83625153  0.30693378  0.36651178     0.28600
H635        H  0.87370983  0.26369357  0.49313311     0.19200
H636        H  0.87091949  0.15984517  0.34847870     0.19200
C637        C  0.66272434  0.20852841  0.37497252    -0.06700
C638        C  0.63981468  0.16405079  0.38654431    -0.17800
C639        C  0.60736052  0.15889059  0.42528025     0.10500
C640        C  0.59685015  0.19965386  0.45398528    -0.06600
C641        C  0.61325267  0.24470873  0.43683895    -0.17800
C642        C  0.64203287  0.24933718  0.39542464     0.10600
S643        S  0.57993733  0.09972199  0.93393091    -0.32800
S644        S  0.63579623  0.30272181  0.36126374    -0.32800
H645        H  0.62548603  0.33298584  0.40063936     0.28600
H646        H  0.59582012  0.09523126  0.98167929     0.28600
H647        H  0.65049742  0.13219836  0.36869405     0.19200
H648        H  0.60032376  0.27678577  0.45354795     0.19200
C649        C  0.74932802  0.06807335  0.47365389    -0.06700
C650        C  0.78142691  0.06310287  0.43560910    -0.17800
C651        C  0.78479806  0.09509675  0.39715219     0.10500
C652        C  0.75491274  0.13537061  0.39620285    -0.06600
C653        C  0.72805327  0.14295537  0.43864967    -0.17800
C654        C  0.72290246  0.10942430  0.47579737     0.10600
S655        S  0.82543432  0.07581444  0.35110521    -0.32800
S656        S  0.68284744  0.12382100  0.02450064    -0.32800
H657        H  0.69062721  0.08613402  0.05575455     0.28600
H658        H  0.81569863  0.11136576  0.31992936     0.28600
H659        H  0.80293616  0.53198419  0.43462957     0.19200
H660        H  0.70955618  0.17511525  0.44372476     0.19200
C661        C  0.75072124  0.17148171  0.85368959    -0.03000
C662        C  0.71130040  0.20949884  0.84678674    -0.03000
C663        C  0.79072150  0.21318906  0.84913387    -0.03000
C664        C  0.75109866  0.25115741  0.84209158    -0.03000
C665        C  0.74996593  0.16263185  0.79728239    -0.03000
C666        C  0.71215245  0.20133853  0.79132200    -0.03000
C667        C  0.79213151  0.20331423  0.79291957    -0.03000
C668        C  0.75380911  0.24192608  0.78526253    -0.03000
O669        O  0.94881984  0.15664507  0.51739816    -0.73500
O670        O  0.55101580  0.16090821  0.62125555    -0.74500
O671        O  0.95129606  0.15796515  0.62158801    -0.63100
O672        O  0.54942228  0.15859903  0.51568659    -0.71500
O673        O  0.55234975  0.23777589  0.51689062    -0.71000
O674        O  0.95369050  0.23722821  0.62358285    -0.62300
O675        O  0.55400182  0.24017267  0.62188374    -0.74800
O676        O  0.95217738  0.23611646  0.52026394    -0.73600
Cu677      Cu  0.50025408  0.15578516  0.56895693     1.04600
Cu678      Cu  0.50333476  0.24050572  0.57055347     1.04300
C679        C  0.93481624  0.19653398  0.50209960     0.92700
C680        C  0.56643231  0.20106560  0.64016494     0.91900
C681        C  0.93728937  0.19694408  0.63999080     0.84000
C682        C  0.56495687  0.19834498  0.49771919     0.90300
O683        O  0.70688032  0.50950437  0.52291985    -0.73500
O684        O  0.70699548  0.39802551  0.61535256    -0.74500
O685        O  0.70679289  0.50041739  0.62529139    -0.63100
O686        O  0.70628624  0.40775341  0.51354040    -0.71500
O687        O  0.78564266  0.41336741  0.51250351    -0.71000
O688        O  0.78612341  0.50430708  0.62579278    -0.62300
O689        O  0.78608917  0.40341750  0.61369851    -0.74800
O690        O  0.78606033  0.51390300  0.52463131    -0.73600
Cu691      Cu  0.70382546  0.45378293  0.56933247     1.04000
Cu692      Cu  0.78864151  0.45887370  0.56917047     1.04300
C693        C  0.74688090  0.02934980  0.50957614     0.92700
C694        C  0.74708283  0.38303235  0.62870888     0.91900
C695        C  0.74647509  0.01747506  0.64255948     0.84000
C696        C  0.74592729  0.39577300  0.49583338     0.90300
C697        C  0.74998109  0.34441032  0.66458400    -0.06700
C698        C  0.78454704  0.35133602  0.70040057    -0.17800
C699        C  0.78858392  0.31914581  0.73833709     0.10500
C700        C  0.75819585  0.27639550  0.74063113    -0.06600
C701        C  0.72970744  0.26641671  0.69895579    -0.17800
C702        C  0.72244888  0.30079859  0.66348321     0.10600
S703        S  0.83114221  0.33833310  0.78326322    -0.32800
S704        S  0.67876314  0.28600759  0.61721625    -0.32800
H705        H  0.65251722  0.32646524  0.62666955     0.28600
H706        H  0.83163576  0.38811362  0.77558188     0.28600
H707        H  0.80758904  0.38381050  0.69977867     0.19200
H708        H  0.71097361  0.23226874  0.69365006     0.19200
C709        C  0.83891833  0.19776195  0.76191530    -0.06700
C710        C  0.84679945  0.15494588  0.73597163    -0.17800
C711        C  0.87656004  0.15367391  0.69540735     0.10500
C712        C  0.90341510  0.19563151  0.68171743    -0.06600
C713        C  0.90317985  0.23550320  0.71334236    -0.17800
C714        C  0.87542721  0.23448026  0.75596182     0.10600
S715        S  0.87734709  0.09710171  0.66296504    -0.32800
S716        S  0.90395257  0.26263843  0.80825742    -0.32800
H717        H  0.93539719  0.29477029  0.78342319     0.28600
H718        H  0.87076536  0.11748735  0.61727687     0.28600
H719        H  0.82946557  0.12133672  0.74544837     0.19200
H720        H  0.92915772  0.26509425  0.70781182     0.19200
C721        C  0.59774499  0.20162566  0.68416592    -0.06700
C722        C  0.61411279  0.15802708  0.69994042    -0.17800
C723        C  0.64257762  0.15568500  0.74143301     0.10500
C724        C  0.66390557  0.19822805  0.76253983    -0.06600
C725        C  0.64172932  0.24073487  0.75165299    -0.17800
C726        C  0.60827178  0.24281212  0.71391918     0.10600
S727        S  0.63268310  0.10233668  0.77597309    -0.32800
S728        S  0.58065468  0.29894621  0.70654295    -0.32800
H729        H  0.53423525  0.27728632  0.70293576     0.28600
H730        H  0.62438706  0.07078834  0.73627326     0.28600
H731        H  0.60098669  0.12494234  0.68243425     0.19200
H732        H  0.65321072  0.27352572  0.76960423     0.19200
C733        C  0.74388601  0.12042750  0.76010492    -0.06700
C734        C  0.74777599  0.13482640  0.71142591    -0.17800
C735        C  0.75104909  0.10257164  0.67302027     0.10500
C736        C  0.74640082  0.05316526  0.68189182    -0.06600
C737        C  0.73877500  0.03742618  0.72915356    -0.17800
C738        C  0.73671837  0.06977552  0.76836140     0.10600
S739        S  0.76420718  0.12811176  0.61455285    -0.32800
S740        S  0.71736576  0.04129523  0.82371577    -0.32800
H741        H  0.69954090  0.08204908  0.84396529     0.28600
H742        H  0.78449501  0.08829526  0.59319672     0.28600
H743        H  0.75414464  0.17219354  0.70344176     0.19200
H744        H  0.73315109  0.99922288  0.73537601     0.19200
C745        C  0.74553859  0.29292208  0.87859418    -0.06700
C746        C  0.74529741  0.27878131  0.92739916    -0.17800
C747        C  0.74723114  0.31136147  0.96580735     0.10500
C748        C  0.74573049  0.36039331  0.95645888    -0.06600
C749        C  0.74194342  0.37569953  0.90879682    -0.17800
C750        C  0.74098332  0.34303072  0.86965864     0.10600
S751        S  0.75665338  0.28774341  0.02515627    -0.32800
S752        S  0.72571744  0.36948874  0.81315773    -0.32800
H753        H  0.70545728  0.32739513  0.79335331     0.28600
H754        H  0.78662854  0.32640867  0.54222722     0.28600
H755        H  0.74876811  0.24179892  0.93599247     0.19200
H756        H  0.73852000  0.41356932  0.90215372     0.19200
C757        C  0.89875224  0.19866129  0.96285518    -0.06700
C758        C  0.87006221  0.23787157  0.96349768    -0.17800
C759        C  0.84457585  0.24997706  0.92261452     0.10500
C760        C  0.83495325  0.21535201  0.88471365    -0.06600
C761        C  0.86745599  0.17883228  0.88219911    -0.17800
C762        C  0.89907420  0.16986353  0.92042295     0.10600
S763        S  0.85034699  0.31355696  0.91332327    -0.32800
S764        S  0.94160427  0.12413395  0.91307471    -0.32800
H765        H  0.93119706  0.11241899  0.36445785     0.28600
H766        H  0.83621517  0.30678187  0.86642380     0.28600
H767        H  0.87372203  0.26378492  0.99312180     0.19200
H768        H  0.87082688  0.15984766  0.84853041     0.19200
C769        C  0.66270169  0.20859319  0.87497976    -0.06700
C770        C  0.63981452  0.16411406  0.88657242    -0.17800
C771        C  0.60734695  0.15896363  0.92529702     0.10500
C772        C  0.59686007  0.19971857  0.95402324    -0.06600
C773        C  0.61324806  0.24477740  0.93687231    -0.17800
C774        C  0.64199963  0.24940555  0.89543314     0.10600
S775        S  0.58002215  0.09962022  0.43396164    -0.32800
S776        S  0.63563418  0.30274826  0.86123641    -0.32800
H777        H  0.62572962  0.33308105  0.90068923     0.28600
H778        H  0.59574062  0.09521043  0.48177561     0.28600
H779        H  0.65054251  0.13225153  0.86875227     0.19200
H780        H  0.60030026  0.27685284  0.95357136     0.19200
C781        C  0.74930495  0.06798247  0.97361494    -0.06700
C782        C  0.78133736  0.06296966  0.93551962    -0.17800
C783        C  0.78473836  0.09500226  0.89709473     0.10500
C784        C  0.75487444  0.13530729  0.89618176    -0.06600
C785        C  0.72804723  0.14288902  0.93864511    -0.17800
C786        C  0.72291465  0.10936041  0.97579628     0.10600
S787        S  0.82545592  0.07578094  0.85109070    -0.32800
S788        S  0.68275891  0.12381288  0.52445160    -0.32800
H789        H  0.69085271  0.08631222  0.55583477     0.28600
H790        H  0.81568451  0.11136708  0.81998814     0.28600
H791        H  0.80279287  0.53181050  0.93449989     0.19200
H792        H  0.70958435  0.17507140  0.94373495     0.19200
C793        C  0.75075684  0.67147593  0.35365843    -0.03000
C794        C  0.71132133  0.70946131  0.34677939    -0.03000
C795        C  0.79074991  0.71318395  0.34907892    -0.03000
C796        C  0.75110307  0.75113463  0.34207783    -0.03000
C797        C  0.74996850  0.66262852  0.29723990    -0.03000
C798        C  0.71214084  0.70129778  0.29131839    -0.03000
C799        C  0.79210919  0.70332022  0.29285269    -0.03000
C800        C  0.75376294  0.74191726  0.28523455    -0.03000
O801        O  0.94877372  0.65670361  0.01741028    -0.73500
O802        O  0.55100758  0.66091151  0.12124332    -0.74500
O803        O  0.95129587  0.65804474  0.12157127    -0.63100
O804        O  0.54936101  0.65863330  0.01565493    -0.71500
O805        O  0.55244859  0.73781484  0.01700953    -0.71000
O806        O  0.95367700  0.73730814  0.12357481    -0.62300
O807        O  0.55397322  0.74017621  0.12199014    -0.74800
O808        O  0.95224970  0.73617943  0.02022165    -0.73600
Cu809      Cu  0.50022337  0.65582889  0.06894850     1.04600
Cu810      Cu  0.50336759  0.74055168  0.07059793     1.04300
C811        C  0.93482985  0.69660285  0.00208453     0.92700
C812        C  0.56641749  0.70104694  0.14020989     0.91900
C813        C  0.93728993  0.69701827  0.13997793     0.84000
C814        C  0.56497608  0.69838855  0.99776508     0.90300
O815        O  0.70688670  0.00946843  0.02293443    -0.73500
O816        O  0.70695853  0.89805259  0.11533692    -0.74500
O817        O  0.70675427  0.00036916  0.12530183    -0.63100
O818        O  0.70624979  0.90778090  0.01352055    -0.71500
O819        O  0.78560911  0.91327642  0.01259444    -0.71000
O820        O  0.78608686  0.00435613  0.12579289    -0.62300
O821        O  0.78605923  0.90351095  0.11381946    -0.74800
O822        O  0.78606860  0.01383056  0.02459229    -0.73600
Cu823      Cu  0.70380535  0.95377544  0.06933065     1.04000
Cu824      Cu  0.78862591  0.95886655  0.06921353     1.04300
C825        C  0.74688581  0.52928525  0.00955658     0.92700
C826        C  0.74703994  0.88312205  0.12878062     0.91900
C827        C  0.74642037  0.51746166  0.14257501     0.84000
C828        C  0.74589010  0.89575805  0.99585284     0.90300
C829        C  0.74989642  0.84452231  0.16465229    -0.06700
C830        C  0.78443207  0.85142662  0.20048613    -0.17800
C831        C  0.78848209  0.81918426  0.23835937     0.10500
C832        C  0.75808998  0.77643173  0.24062617    -0.06600
C833        C  0.72955469  0.76651744  0.19895682    -0.17800
C834        C  0.72235499  0.80093031  0.16348943     0.10600
S835        S  0.83107912  0.83837910  0.28323466    -0.32800
S836        S  0.67879140  0.78622920  0.11708042    -0.32800
H837        H  0.65236292  0.82651570  0.12676651     0.28600
H838        H  0.83068471  0.88821695  0.27618430     0.28600
H839        H  0.80747635  0.88390578  0.19992062     0.19200
H840        H  0.71080666  0.73237920  0.19361948     0.19200
C841        C  0.83885694  0.69777330  0.26181525    -0.06700
C842        C  0.84671496  0.65497276  0.23583181    -0.17800
C843        C  0.87653762  0.65371454  0.19531578     0.10500
C844        C  0.90342487  0.69567539  0.18169638    -0.06600
C845        C  0.90321309  0.73550568  0.21336915    -0.17800
C846        C  0.87538659  0.73447660  0.25593125     0.10600
S847        S  0.87740113  0.59715519  0.16285781    -0.32800
S848        S  0.90374145  0.76272984  0.30826085    -0.32800
H849        H  0.93512120  0.79495124  0.28346391     0.28600
H850        H  0.87073870  0.61755776  0.11719068     0.28600
H851        H  0.82936571  0.62136109  0.24528707     0.19200
H852        H  0.92922889  0.76507653  0.20790092     0.19200
C853        C  0.59774914  0.70155889  0.18419497    -0.06700
C854        C  0.61418613  0.65795179  0.19986900    -0.17800
C855        C  0.64259242  0.65556264  0.24139757     0.10500
C856        C  0.66387992  0.69810376  0.26257496    -0.06600
C857        C  0.64168083  0.74059534  0.25175471    -0.17800
C858        C  0.60824484  0.74270579  0.21401902     0.10600
S859        S  0.63242432  0.60224060  0.27593947    -0.32800
S860        S  0.58069282  0.79887333  0.20669517    -0.32800
H861        H  0.53425729  0.77726069  0.20308006     0.28600
H862        H  0.62457941  0.57067434  0.23617356     0.28600
H863        H  0.60110575  0.62488369  0.18229572     0.19200
H864        H  0.65318433  0.77337495  0.26972094     0.19200
C865        C  0.74381273  0.62047382  0.26003460    -0.06700
C866        C  0.74765902  0.63485343  0.21134053    -0.17800
C867        C  0.75093173  0.60255669  0.17296657     0.10500
C868        C  0.74628814  0.55316365  0.18188509    -0.06600
C869        C  0.73857601  0.53746649  0.22914703    -0.17800
C870        C  0.73658396  0.56985225  0.26832367     0.10600
S871        S  0.76405787  0.62799575  0.11445761    -0.32800
S872        S  0.71730265  0.54149694  0.32374476    -0.32800
H873        H  0.69957742  0.58232939  0.34388166     0.28600
H874        H  0.78463000  0.58825545  0.09326566     0.28600
H875        H  0.75399588  0.67222167  0.20332480     0.19200
H876        H  0.73289321  0.49927548  0.23540350     0.19200
C877        C  0.74556430  0.79288179  0.37861381    -0.06700
C878        C  0.74529512  0.77874513  0.42743311    -0.17800
C879        C  0.74724589  0.81134324  0.46584348     0.10500
C880        C  0.74578056  0.86037596  0.45647004    -0.06600
C881        C  0.74207353  0.87567250  0.40880503    -0.17800
C882        C  0.74108234  0.84299947  0.36967885     0.10600
S883        S  0.75678853  0.78778460  0.52520572    -0.32800
S884        S  0.72580788  0.86949332  0.31320306    -0.32800
H885        H  0.70540687  0.82745676  0.29338880     0.28600
H886        H  0.78648437  0.82632830  0.04227127     0.28600
H887        H  0.74878588  0.74177072  0.43603061     0.19200
H888        H  0.73871164  0.91354889  0.40214949     0.19200
C889        C  0.89875536  0.69858748  0.46285474    -0.06700
C890        C  0.87007011  0.73779622  0.46349145    -0.17800
C891        C  0.84458615  0.74991915  0.42261559     0.10500
C892        C  0.83499704  0.71532879  0.38466879    -0.06600
C893        C  0.86750839  0.67879327  0.38216711    -0.17800
C894        C  0.89907871  0.66977703  0.42043661     0.10600
S895        S  0.85021398  0.81353765  0.41349631    -0.32800
S896        S  0.94159643  0.62400616  0.41320182    -0.32800
H897        H  0.93272142  0.61425778  0.86369876     0.28600
H898        H  0.83626100  0.80693740  0.36651187     0.28600
H899        H  0.87370402  0.76368823  0.49313663     0.19200
H900        H  0.87092639  0.65984314  0.34847896     0.19200
C901        C  0.66272906  0.70852924  0.37497118    -0.06700
C902        C  0.63982104  0.66405158  0.38654346    -0.17800
C903        C  0.60736525  0.65889111  0.42527757     0.10500
C904        C  0.59685374  0.69965387  0.45398312    -0.06600
C905        C  0.61325544  0.74470919  0.43683597    -0.17800
C906        C  0.64203785  0.74933731  0.39542332     0.10600
S907        S  0.57993838  0.59971785  0.93393237    -0.32800
S908        S  0.63579286  0.80271844  0.36126178    -0.32800
H909        H  0.62563718  0.83300426  0.40066943     0.28600
H910        H  0.59581251  0.59522908  0.98168399     0.28600
H911        H  0.65050549  0.63219938  0.36869454     0.19200
H912        H  0.60032130  0.77678712  0.45353902     0.19200
C913        C  0.74933539  0.56807784  0.47365777    -0.06700
C914        C  0.78143638  0.56310980  0.43561398    -0.17800
C915        C  0.78480221  0.59510023  0.39715359     0.10500
C916        C  0.75491636  0.63537349  0.39620439    -0.06600
C917        C  0.72805839  0.64295908  0.43865260    -0.17800
C918        C  0.72290742  0.60942736  0.47580015     0.10600
S919        S  0.82543041  0.57581354  0.35110068    -0.32800
S920        S  0.68284318  0.62382403  0.02449362    -0.32800
H921        H  0.69062257  0.58613962  0.05575047     0.28600
H922        H  0.81570253  0.61137091  0.31992871     0.28600
H923        H  0.80292403  0.03197531  0.43462359     0.19200
H924        H  0.70955937  0.67511781  0.44372717     0.19200
C925        C  0.75072396  0.67148057  0.85368979    -0.03000
C926        C  0.71130260  0.70949741  0.84678886    -0.03000
C927        C  0.79072411  0.71318780  0.84913368    -0.03000
C928        C  0.75110081  0.75115582  0.84209302    -0.03000
C929        C  0.74996716  0.66263098  0.79728281    -0.03000
C930        C  0.71215398  0.70133787  0.79132424    -0.03000
C931        C  0.79213257  0.70331301  0.79291888    -0.03000
C932        C  0.75381013  0.74192533  0.78526360    -0.03000
O933        O  0.94882128  0.65664690  0.51739751    -0.73500
O934        O  0.55102274  0.66090853  0.62125361    -0.74500
O935        O  0.95129211  0.65796489  0.62158312    -0.63100
O936        O  0.54942307  0.65859749  0.51568318    -0.71500
O937        O  0.55235540  0.73777439  0.51689177    -0.71000
O938        O  0.95369187  0.73722813  0.62358381    -0.62300
O939        O  0.55400421  0.74017282  0.62188573    -0.74800
O940        O  0.95217760  0.73611849  0.52026426    -0.73600
Cu941      Cu  0.50025637  0.65578415  0.56895769     1.04600
Cu942      Cu  0.50333764  0.74050445  0.57055356     1.04300
C943        C  0.93481741  0.69653570  0.50209972     0.92700
C944        C  0.56643903  0.70106581  0.64016373     0.91900
C945        C  0.93728857  0.69694344  0.63998885     0.84000
C946        C  0.56496016  0.69834379  0.49771764     0.90300
O947        O  0.70687658  0.00950180  0.52291879    -0.73500
O948        O  0.70699061  0.89802687  0.61535362    -0.74500
O949        O  0.70679292  0.00041855  0.62529124    -0.63100
O950        O  0.70628570  0.90775196  0.51354140    -0.71500
O951        O  0.78564212  0.91337032  0.51250031    -0.71000
O952        O  0.78612349  0.00430570  0.62579183    -0.62300
O953        O  0.78608431  0.90341533  0.61369621    -0.74800
O954        O  0.78605680  0.01390430  0.52463041    -0.73600
Cu955      Cu  0.70382321  0.95378277  0.56933266     1.04000
Cu956      Cu  0.78863970  0.95887397  0.56916865     1.04300
C957        C  0.74688556  0.52935138  0.50957780     0.92700
C958        C  0.74707743  0.88303179  0.62870829     0.91900
C959        C  0.74647427  0.51747569  0.64255949     0.84000
C960        C  0.74592680  0.89577360  0.49583247     0.90300
C961        C  0.74997451  0.84441048  0.66458475    -0.06700
C962        C  0.78453984  0.85133792  0.70040169    -0.17800
C963        C  0.78857943  0.81914737  0.73833779     0.10500
C964        C  0.75819347  0.77639568  0.74063222    -0.06600
C965        C  0.72970305  0.76641697  0.69895825    -0.17800
C966        C  0.72244238  0.80079834  0.66348557     0.10600
S967        S  0.83113798  0.83833432  0.78326411    -0.32800
S968        S  0.67875687  0.78600354  0.61721894    -0.32800
H969        H  0.65251548  0.82646695  0.62665897     0.28600
H970        H  0.83165086  0.88811349  0.77556967     0.28600
H971        H  0.80757994  0.88381357  0.69977934     0.19200
H972        H  0.71097034  0.73226851  0.69365263     0.19200
C973        C  0.83891727  0.69775953  0.76191190    -0.06700
C974        C  0.84679648  0.65494380  0.73596621    -0.17800
C975        C  0.87655855  0.65367156  0.69540295     0.10500
C976        C  0.90341531  0.69562910  0.68171553    -0.06600
C977        C  0.90318347  0.73549843  0.71334353    -0.17800
C978        C  0.87542725  0.73447661  0.75596026     0.10600
S979        S  0.87735148  0.59709743  0.66296383    -0.32800
S980        S  0.90394695  0.76263827  0.80825622    -0.32800
H981        H  0.93535964  0.79480002  0.78342054     0.28600
H982        H  0.87076399  0.61747871  0.61727461     0.28600
H983        H  0.82946261  0.62133458  0.74544310     0.19200
H984        H  0.92916564  0.76508655  0.70781711     0.19200
C985        C  0.59775507  0.70162547  0.68416287    -0.06700
C986        C  0.61413238  0.65802767  0.69992992    -0.17800
C987        C  0.64258651  0.65568365  0.74143025     0.10500
C988        C  0.66390783  0.69822611  0.76254271    -0.06600
C989        C  0.64172771  0.74073109  0.75165976    -0.17800
C990        C  0.60827323  0.74280895  0.71392359     0.10600
S991        S  0.63267753  0.60234068  0.77597767    -0.32800
S992        S  0.58065487  0.79894253  0.70655044    -0.32800
H993        H  0.53423641  0.77728162  0.70293799     0.28600
H994        H  0.62431667  0.57079186  0.73628994     0.28600
H995        H  0.60101763  0.62494413  0.68241396     0.19200
H996        H  0.65320476  0.77352081  0.76961465     0.19200
C997        C  0.74388427  0.62042721  0.76010507    -0.06700
C998        C  0.74777289  0.63482681  0.71142615    -0.17800
C999        C  0.75104687  0.60257291  0.67302007     0.10500
C1000       C  0.74639799  0.55316623  0.68189116    -0.06600
C1001       C  0.73877078  0.53742666  0.72915261    -0.17800
C1002       C  0.73671553  0.56977540  0.76836094     0.10600
S1003       S  0.76420974  0.62811596  0.61455451    -0.32800
S1004       S  0.71736769  0.54129446  0.82371625    -0.32800
H1005       H  0.69954190  0.58204759  0.84396582     0.28600
H1006       H  0.78448183  0.58829470  0.59319076     0.28600
H1007       H  0.75414167  0.67219399  0.70344261     0.19200
H1008       H  0.73314689  0.49922327  0.73537478     0.19200
C1009       C  0.74554080  0.79291959  0.87859594    -0.06700
C1010       C  0.74530105  0.77877925  0.92740099    -0.17800
C1011       C  0.74723419  0.81135980  0.96580882     0.10500
C1012       C  0.74573307  0.86039147  0.95645930    -0.06600
C1013       C  0.74194158  0.87569645  0.90879737    -0.17800
C1014       C  0.74098168  0.84302719  0.86965991     0.10600
S1015       S  0.75665247  0.78774138  0.02515845    -0.32800
S1016       S  0.72571011  0.86948273  0.81315953    -0.32800
H1017       H  0.70545436  0.82738694  0.79335635     0.28600
H1018       H  0.78660893  0.82641803  0.54224097     0.28600
H1019       H  0.74877360  0.74179747  0.93599457     0.19200
H1020       H  0.73851460  0.91356559  0.90215385     0.19200
C1021       C  0.89875154  0.69865787  0.96285675    -0.06700
C1022       C  0.87005860  0.73786579  0.96350187    -0.17800
C1023       C  0.84457564  0.74997416  0.92261748     0.10500
C1024       C  0.83495545  0.71535105  0.88471413    -0.06600
C1025       C  0.86745850  0.67883165  0.88219925    -0.17800
C1026       C  0.89907528  0.66986178  0.92042385     0.10600
S1027       S  0.85035114  0.81355482  0.91332934    -0.32800
S1028       S  0.94160604  0.62413272  0.91307700    -0.32800
H1029       H  0.93116294  0.61237137  0.36448329     0.28600
H1030       H  0.83621992  0.80678648  0.86642843     0.28600
H1031       H  0.87371604  0.76377683  0.99312824     0.19200
H1032       H  0.87083059  0.65984830  0.84852986     0.19200
C1033       C  0.66270299  0.70859067  0.87498232    -0.06700
C1034       C  0.63981698  0.66411092  0.88657611    -0.17800
C1035       C  0.60734691  0.65896020  0.92529876     0.10500
C1036       C  0.59685601  0.69971564  0.95402218    -0.06600
C1037       C  0.61324201  0.74477406  0.93686999    -0.17800
C1038       C  0.64199758  0.74940254  0.89543388     0.10600
S1039       S  0.58002369  0.59962152  0.43395271    -0.32800
S1040       S  0.63563398  0.80274635  0.86123924    -0.32800
H1041       H  0.62571793  0.83307708  0.90069014     0.28600
H1042       H  0.59574001  0.59520776  0.48176681     0.28600
H1043       H  0.65054730  0.63224818  0.86875819     0.19200
H1044       H  0.60029099  0.77684900  0.95356687     0.19200
C1045       C  0.74930223  0.56798189  0.97361358    -0.06700
C1046       C  0.78133499  0.56296731  0.93551842    -0.17800
C1047       C  0.78473967  0.59500116  0.89709455     0.10500
C1048       C  0.75487743  0.63530698  0.89618143    -0.06600
C1049       C  0.72805053  0.64289018  0.93864395    -0.17800
C1050       C  0.72291427  0.60936148  0.97579393     0.10600
S1051       S  0.82545881  0.57578134  0.85109144    -0.32800
S1052       S  0.68275714  0.62381045  0.52445066    -0.32800
H1053       H  0.69086224  0.58631695  0.55583895     0.28600
H1054       H  0.81568780  0.61136641  0.81998670     0.28600
H1055       H  0.80279738  0.03181433  0.93450140     0.19200
H1056       H  0.70958918  0.67507333  0.94373359     0.19200
loop_ 
_geom_bond_atom_site_label_1 
_geom_bond_atom_site_label_2 
_geom_bond_distance 
_geom_bond_site_symmetry_2 
_ccdc_geom_bond_type 
C1            C2   1.589       .  S
C1            C3   1.577       .  S
C1            C5   1.573       .  S
C1          C124   1.567       .  S
C2            C4   1.573       .  S
C2            C6   1.545       .  S
C2          C109   1.569       .  S
C3            C4   1.593       .  S
C3            C7   1.573       .  S
C3          C100   1.582       .  S
C4            C8   1.589       .  S
C4           C85   1.545       .  S
C5            C6   1.567       .  S
C5            C7   1.598       .  S
C5           C73   1.553       .  S
C6            C8   1.592       .  S
C6           C64   1.568       .  S
C7            C8   1.582       .  S
C7           C49   1.580       .  S
C8           C40   1.574       .  S
O9           C19   1.279       .  A
O9         Cu545   2.030       .  S
O10          C20   1.283       .  A
O10         Cu17   2.028       .  S
O11          C21   1.276       .  A
O11        Cu545   2.001       .  S
O12          C22   1.275   1_554  A
O12         Cu17   2.015       .  S
O13          C22   1.282   1_554  A
O13         Cu18   2.024       .  S
O14          C21   1.279       .  A
O14        Cu546   2.019       .  S
O15          C20   1.275       .  A
O15         Cu18   2.009       .  S
O16          C19   1.278       .  A
O16        Cu546   1.997       .  S
Cu17        O537   2.030   1_455  S
Cu17        O539   2.001   1_455  S
Cu17        Cu18   2.361       .  S
Cu18        O542   2.019   1_455  S
Cu18        O544   1.997   1_455  S
C19         C229   1.487   1_554  S
C20          C61   1.499       .  S
C21          C52   1.492       .  S
C22         C244   1.502       .  S
O23         C297   1.280       .  A
O23         Cu31   2.026       .  S
O24          C34   1.279       .  A
O24         Cu31   2.027       .  S
O25         C299   1.276       .  A
O25         Cu31   2.004       .  S
O26          C36   1.275   1_554  A
O26         Cu31   1.995       .  S
O27          C36   1.276   1_554  A
O27         Cu32   2.000       .  S
O28         C299   1.276       .  A
O28         Cu32   2.003       .  S
O29          C34   1.276       .  A
O29         Cu32   1.987       .  S
O30         C297   1.276       .  A
O30         Cu32   1.985       .  S
Cu31        Cu32   2.377       .  S
C33         O287   1.280       .  A
C33         O294   1.276       .  A
C33         C253   1.475   1_554  S
C34          C37   1.479       .  S
C35         O289   1.276       .  A
C35         O292   1.276       .  A
C35          C76   1.463       .  S
C36         C220   1.458       .  S
C37          C38   1.389       .  A
C37          C42   1.404       .  A
C38          C39   1.398       .  A
C38          H47   1.084       .  S
C39          C40   1.429       .  A
C39          S43   1.778       .  S
C40          C41   1.417       .  A
C41          C42   1.404       .  A
C41          H48   1.070       .  S
C42          S44   1.799       .  S
S43          H46   1.408       .  S
S44          H45   1.404       .  S
C49          C50   1.413       .  A
C49          C54   1.419       .  A
C50          C51   1.398       .  A
C50          H59   1.068       .  S
C51          C52   1.412       .  A
C51          S55   1.806       .  S
C52          C53   1.405       .  A
C53          C54   1.410       .  A
C53          H60   1.083       .  S
C54          S56   1.800       .  S
S55          H58   1.407       .  S
S56          H57   1.407       .  S
C61          C62   1.400       .  A
C61          C66   1.421       .  A
C62          C63   1.401       .  A
C62          H71   1.082       .  S
C63          C64   1.418       .  A
C63          S67   1.788       .  S
C64          C65   1.406       .  A
C65          C66   1.407       .  A
C65          H72   1.068       .  S
C66          S68   1.801       .  S
S67          H70   1.407       .  S
S68          H69   1.408       .  S
C73          C74   1.410       .  A
C73          C78   1.437       .  A
C74          C75   1.388       .  A
C74          H83   1.074       .  S
C75          C76   1.403       .  A
C75          S79   1.803       .  S
C76          C77   1.395       .  A
C77          C78   1.403       .  A
C77          H84   1.085   1_545  S
C78          S80   1.801       .  S
S79          H82   1.400       .  S
S80          H81   1.379       .  S
C85          C86   1.409       .  A
C85          C90   1.436       .  A
C86          C87   1.386       .  A
C86          H95   1.072       .  S
C87          C88   1.399       .  A
C87          S91   1.800       .  S
C88         C168   1.458       .  S
C88          C89   1.395       .  A
C89          C90   1.403       .  A
C89          H96   1.085       .  S
C90          S92   1.797       .  S
S91         H226   1.403       .  S
S92          H93   1.382       .  S
H94         S223   1.403       .  S
C97         C151   1.487       .  S
C97          C98   1.395       .  A
C97         C102   1.411       .  A
C98          C99   1.392       .  A
C98         H107   1.085       .  S
C99         C100   1.430       .  A
C99         S103   1.795       .  S
C100        C101   1.407       .  A
C101        C102   1.414       .  A
C101        H108   1.070       .  S
C102        S104   1.806       .  S
S103        H106   1.362       .  S
S104        H237   1.406       .  S
H105        S236   1.406       .  S
C109        C110   1.406       .  A
C109        C114   1.418       .  A
C110        C111   1.408       .  A
C110        H119   1.068       .  S
C111        C112   1.422       .  A
C111        S247   1.803       .  S
C112        C154   1.502       .  S
C112        C113   1.403       .  A
C113        C114   1.402       .  A
C113        H120   1.082       .  S
C114        S116   1.791       .  S
S115        C243   1.803       .  S
S115        H118   1.401       .  S
S116        H117   1.407       .  S
C121        C165   1.476       .  S
C121        C122   1.394       .  A
C121        C126   1.407       .  A
C122        C123   1.396       .  A
C122        H395   1.086       .  S
C123        C124   1.441       .  A
C123        S127   1.804       .  S
C124        C125   1.413       .  A
C125        C126   1.400       .  A
C125        H132   1.070       .  S
C126        S260   1.808       .  S
S127        H130   1.362       .  S
S128        C258   1.808   1_554  S
S128        H129   1.396       .  S
H131        C386   1.086       .  S
C133        C134   1.589       .  S
C133        C135   1.577       .  S
C133        C137   1.573       .  S
C133        C256   1.567       .  S
C134        C136   1.573       .  S
C134        C138   1.545       .  S
C134        C241   1.569       .  S
C135        C136   1.593       .  S
C135        C139   1.573       .  S
C135        C232   1.582       .  S
C136        C140   1.589       .  S
C136        C217   1.545       .  S
C137        C138   1.567       .  S
C137        C139   1.599       .  S
C137        C205   1.554       .  S
C138        C140   1.592       .  S
C138        C196   1.568       .  S
C139        C140   1.582       .  S
C139        C181   1.581       .  S
C140        C172   1.574       .  S
O141        C151   1.279       .  A
O141       Cu677   2.030       .  S
O142        C152   1.283       .  A
O142       Cu149   2.027       .  S
O143        C153   1.276       .  A
O143       Cu677   2.001       .  S
O144        C154   1.275       .  A
O144       Cu149   2.015       .  S
O145        C154   1.282       .  A
O145       Cu150   2.024       .  S
O146        C153   1.279       .  A
O146       Cu678   2.020       .  S
O147        C152   1.275       .  A
O147       Cu150   2.009       .  S
O148        C151   1.278       .  A
O148       Cu678   1.996       .  S
Cu149       O669   2.030   1_455  S
Cu149       O671   2.002   1_455  S
Cu149      Cu150   2.361       .  S
Cu150       O674   2.020   1_455  S
Cu150       O676   1.996   1_455  S
C152        C193   1.499       .  S
C153        C184   1.492       .  S
O155        C429   1.280       .  A
O155       Cu163   2.027       .  S
O156        C166   1.279       .  A
O156       Cu163   2.028       .  S
O157        C431   1.276       .  A
O157       Cu163   2.005       .  S
O158        C168   1.275       .  A
O158       Cu163   1.995       .  S
O159        C168   1.276       .  A
O159       Cu164   2.000       .  S
O160        C431   1.276       .  A
O160       Cu164   2.003       .  S
O161        C166   1.277       .  A
O161       Cu164   1.988       .  S
O162        C429   1.276       .  A
O162       Cu164   1.985       .  S
Cu163      Cu164   2.377       .  S
C165        O419   1.280       .  A
C165        O426   1.276       .  A
C166        C169   1.480       .  S
C167        O421   1.276       .  A
C167        O424   1.276       .  A
C167        C208   1.463       .  S
C169        C170   1.390       .  A
C169        C174   1.404       .  A
C170        C171   1.398       .  A
C170        H179   1.084       .  S
C171        C172   1.429       .  A
C171        S175   1.779       .  S
C172        C173   1.417       .  A
C173        C174   1.403       .  A
C173        H180   1.070       .  S
C174        S176   1.799       .  S
S175        H178   1.408       .  S
S176        H177   1.404       .  S
C181        C182   1.413       .  A
C181        C186   1.419       .  A
C182        C183   1.398       .  A
C182        H191   1.068       .  S
C183        C184   1.412       .  A
C183        S187   1.805       .  S
C184        C185   1.405       .  A
C185        C186   1.410       .  A
C185        H192   1.083       .  S
C186        S188   1.800       .  S
S187        H190   1.407       .  S
S188        H189   1.407       .  S
C193        C194   1.400       .  A
C193        C198   1.421       .  A
C194        C195   1.401       .  A
C194        H203   1.082       .  S
C195        C196   1.417       .  A
C195        S199   1.788       .  S
C196        C197   1.407       .  A
C197        C198   1.407       .  A
C197        H204   1.068       .  S
C198        S200   1.801       .  S
S199        H202   1.407       .  S
S200        H201   1.408       .  S
C205        C206   1.410       .  A
C205        C210   1.438       .  A
C206        C207   1.387       .  A
C206        H215   1.074       .  S
C207        C208   1.403       .  A
C207        S211   1.803       .  S
C208        C209   1.395       .  A
C209        C210   1.403       .  A
C209        H216   1.085   1_545  S
C210        S212   1.801       .  S
S211        H214   1.400       .  S
S212        H213   1.379       .  S
C217        C218   1.409       .  A
C217        C222   1.436       .  A
C218        C219   1.386       .  A
C218        H227   1.072       .  S
C219        C220   1.399       .  A
C219        S223   1.800   1_556  S
C220        C221   1.395       .  A
C221        C222   1.403       .  A
C221        H228   1.085       .  S
C222        S224   1.797       .  S
S224        H225   1.382       .  S
C229        C230   1.395       .  A
C229        C234   1.411       .  A
C230        C231   1.392       .  A
C230        H239   1.085       .  S
C231        C232   1.430       .  A
C231        S235   1.795       .  S
C232        C233   1.407       .  A
C233        C234   1.413       .  A
C233        H240   1.070       .  S
C234        S236   1.806       .  S
S235        H238   1.362       .  S
C241        C242   1.406       .  A
C241        C246   1.418       .  A
C242        C243   1.408       .  A
C242        H251   1.068       .  S
C243        C244   1.422       .  A
C244        C245   1.403       .  A
C245        C246   1.402       .  A
C245        H252   1.082       .  S
C246        S248   1.791       .  S
S247        H250   1.401       .  S
S248        H249   1.407       .  S
C253        C254   1.394       .  A
C253        C258   1.408       .  A
C254        C255   1.396       .  A
C254        H527   1.086       .  S
C255        C256   1.441       .  A
C255        S259   1.804       .  S
C256        C257   1.412       .  A
C257        C258   1.400       .  A
C257        H264   1.070       .  S
S259        H262   1.362       .  S
S260        H261   1.396       .  S
H263        C518   1.086       .  S
C265        C266   1.589       .  S
C265        C267   1.577       .  S
C265        C269   1.573       .  S
C265        C388   1.567       .  S
C266        C268   1.573       .  S
C266        C270   1.545       .  S
C266        C373   1.569       .  S
C267        C268   1.593       .  S
C267        C271   1.573       .  S
C267        C364   1.582       .  S
C268        C272   1.589       .  S
C268        C349   1.545       .  S
C269        C270   1.567       .  S
C269        C271   1.598       .  S
C269        C337   1.553       .  S
C270        C272   1.592       .  S
C270        C328   1.568       .  S
C271        C272   1.582       .  S
C271        C313   1.580       .  S
C272        C304   1.574       .  S
O273        C283   1.279       .  A
O273       Cu809   2.030       .  S
O274        C284   1.283       .  A
O274       Cu281   2.028       .  S
O275        C285   1.276       .  A
O275       Cu809   2.001       .  S
O276        C286   1.275   1_554  A
O276       Cu281   2.015       .  S
O277        C286   1.282   1_554  A
O277       Cu282   2.024       .  S
O278        C285   1.279       .  A
O278       Cu810   2.019       .  S
O279        C284   1.275       .  A
O279       Cu282   2.009       .  S
O280        C283   1.278       .  A
O280       Cu810   1.997       .  S
Cu281       O801   2.030   1_455  S
Cu281       O803   2.001   1_455  S
Cu281      Cu282   2.361       .  S
Cu282       O806   2.019   1_455  S
Cu282       O808   1.997   1_455  S
C283        C493   1.487   1_554  S
C284        C325   1.499       .  S
C285        C316   1.492       .  S
C286        C508   1.502       .  S
O287       Cu295   2.026   1_545  S
O288        C298   1.279       .  A
O288       Cu295   2.027       .  S
O289       Cu295   2.004   1_545  S
O290        C300   1.275   1_554  A
O290       Cu295   1.995       .  S
O291        C300   1.276   1_554  A
O291       Cu296   2.000       .  S
O292       Cu296   2.003   1_545  S
O293        C298   1.276       .  A
O293       Cu296   1.987       .  S
O294       Cu296   1.985   1_545  S
Cu295      Cu296   2.377       .  S
C297        C517   1.475   1_554  S
C298        C301   1.479       .  S
C299        C340   1.463       .  S
C300        C484   1.458       .  S
C301        C302   1.389       .  A
C301        C306   1.404       .  A
C302        C303   1.398       .  A
C302        H311   1.084       .  S
C303        C304   1.429       .  A
C303        S307   1.778       .  S
C304        C305   1.417       .  A
C305        C306   1.404       .  A
C305        H312   1.070       .  S
C306        S308   1.799       .  S
S307        H310   1.408       .  S
S308        H309   1.404       .  S
C313        C314   1.413       .  A
C313        C318   1.419       .  A
C314        C315   1.398       .  A
C314        H323   1.068       .  S
C315        C316   1.412       .  A
C315        S319   1.806       .  S
C316        C317   1.405       .  A
C317        C318   1.410       .  A
C317        H324   1.083       .  S
C318        S320   1.800       .  S
S319        H322   1.407       .  S
S320        H321   1.407       .  S
C325        C326   1.400       .  A
C325        C330   1.421       .  A
C326        C327   1.401       .  A
C326        H335   1.082       .  S
C327        C328   1.418       .  A
C327        S331   1.788       .  S
C328        C329   1.406       .  A
C329        C330   1.407       .  A
C329        H336   1.068       .  S
C330        S332   1.801       .  S
S331        H334   1.407       .  S
S332        H333   1.408       .  S
C337        C338   1.410       .  A
C337        C342   1.437       .  A
C338        C339   1.388       .  A
C338        H347   1.074       .  S
C339        C340   1.403       .  A
C339        S343   1.803       .  S
C340        C341   1.395       .  A
C341        C342   1.403       .  A
C341        H348   1.085       .  S
C342        S344   1.801       .  S
S343        H346   1.400       .  S
S344        H345   1.379       .  S
C349        C350   1.409       .  A
C349        C354   1.436       .  A
C350        C351   1.386       .  A
C350        H359   1.072       .  S
C351        C352   1.399       .  A
C351        S355   1.800       .  S
C352        C432   1.458       .  S
C352        C353   1.395       .  A
C353        C354   1.403       .  A
C353        H360   1.085       .  S
C354        S356   1.797       .  S
S355        H490   1.403       .  S
S356        H357   1.382       .  S
H358        S487   1.403       .  S
C361        C415   1.487       .  S
C361        C362   1.395       .  A
C361        C366   1.411       .  A
C362        C363   1.392       .  A
C362        H371   1.085       .  S
C363        C364   1.430       .  A
C363        S367   1.795       .  S
C364        C365   1.407       .  A
C365        C366   1.414       .  A
C365        H372   1.070       .  S
C366        S368   1.806       .  S
S367        H370   1.362       .  S
S368        H501   1.406       .  S
H369        S500   1.406       .  S
C373        C374   1.406       .  A
C373        C378   1.418       .  A
C374        C375   1.408       .  A
C374        H383   1.068       .  S
C375        C376   1.422       .  A
C375        S511   1.803       .  S
C376        C418   1.502       .  S
C376        C377   1.403       .  A
C377        C378   1.402       .  A
C377        H384   1.082       .  S
C378        S380   1.791       .  S
S379        C507   1.803       .  S
S379        H382   1.401       .  S
S380        H381   1.407       .  S
C385        C429   1.476       .  S
C385        C386   1.394       .  A
C385        C390   1.407       .  A
C386        C387   1.396       .  A
C387        C388   1.441       .  A
C387        S391   1.804       .  S
C388        C389   1.413       .  A
C389        C390   1.400       .  A
C389        H396   1.070       .  S
C390        S524   1.808       .  S
S391        H394   1.362       .  S
S392        C522   1.808   1_554  S
S392        H393   1.396       .  S
C397        C398   1.589       .  S
C397        C399   1.577       .  S
C397        C401   1.573       .  S
C397        C520   1.567       .  S
C398        C400   1.573       .  S
C398        C402   1.545       .  S
C398        C505   1.569       .  S
C399        C400   1.593       .  S
C399        C403   1.573       .  S
C399        C496   1.582       .  S
C400        C404   1.588       .  S
C400        C481   1.545       .  S
C401        C402   1.567       .  S
C401        C403   1.599       .  S
C401        C469   1.554       .  S
C402        C404   1.592       .  S
C402        C460   1.568       .  S
C403        C404   1.582       .  S
C403        C445   1.581       .  S
C404        C436   1.574       .  S
O405        C415   1.279       .  A
O405       Cu941   2.030       .  S
O406        C416   1.283       .  A
O406       Cu413   2.027       .  S
O407        C417   1.276       .  A
O407       Cu941   2.002       .  S
O408        C418   1.275       .  A
O408       Cu413   2.015       .  S
O409        C418   1.282       .  A
O409       Cu414   2.024       .  S
O410        C417   1.279       .  A
O410       Cu942   2.020       .  S
O411        C416   1.275       .  A
O411       Cu414   2.009       .  S
O412        C415   1.278       .  A
O412       Cu942   1.996       .  S
Cu413       O933   2.030   1_455  S
Cu413       O935   2.002   1_455  S
Cu413      Cu414   2.361       .  S
Cu414       O938   2.020   1_455  S
Cu414       O940   1.996   1_455  S
C416        C457   1.499       .  S
C417        C448   1.492       .  S
O419       Cu427   2.027   1_545  S
O420        C430   1.279       .  A
O420       Cu427   2.028       .  S
O421       Cu427   2.005   1_545  S
O422        C432   1.275       .  A
O422       Cu427   1.995       .  S
O423        C432   1.276       .  A
O423       Cu428   2.000       .  S
O424       Cu428   2.003   1_545  S
O425        C430   1.276       .  A
O425       Cu428   1.988       .  S
O426       Cu428   1.985   1_545  S
Cu427      Cu428   2.377       .  S
C430        C433   1.480       .  S
C431        C472   1.463       .  S
C433        C434   1.390       .  A
C433        C438   1.404       .  A
C434        C435   1.398       .  A
C434        H443   1.084       .  S
C435        C436   1.429       .  A
C435        S439   1.779       .  S
C436        C437   1.417       .  A
C437        C438   1.403       .  A
C437        H444   1.070       .  S
C438        S440   1.799       .  S
S439        H442   1.408       .  S
S440        H441   1.404       .  S
C445        C446   1.413       .  A
C445        C450   1.419       .  A
C446        C447   1.398       .  A
C446        H455   1.068       .  S
C447        C448   1.412       .  A
C447        S451   1.805       .  S
C448        C449   1.405       .  A
C449        C450   1.410       .  A
C449        H456   1.083       .  S
C450        S452   1.800       .  S
S451        H454   1.407       .  S
S452        H453   1.407       .  S
C457        C458   1.400       .  A
C457        C462   1.421       .  A
C458        C459   1.401       .  A
C458        H467   1.082       .  S
C459        C460   1.417       .  A
C459        S463   1.788       .  S
C460        C461   1.407       .  A
C461        C462   1.407       .  A
C461        H468   1.068       .  S
C462        S464   1.801       .  S
S463        H466   1.407       .  S
S464        H465   1.408       .  S
C469        C470   1.410       .  A
C469        C474   1.438       .  A
C470        C471   1.387       .  A
C470        H479   1.074       .  S
C471        C472   1.403       .  A
C471        S475   1.803       .  S
C472        C473   1.395       .  A
C473        C474   1.403       .  A
C473        H480   1.085       .  S
C474        S476   1.801       .  S
S475        H478   1.400       .  S
S476        H477   1.379       .  S
C481        C482   1.409       .  A
C481        C486   1.436       .  A
C482        C483   1.386       .  A
C482        H491   1.072       .  S
C483        C484   1.399       .  A
C483        S487   1.800   1_556  S
C484        C485   1.395       .  A
C485        C486   1.403       .  A
C485        H492   1.085       .  S
C486        S488   1.797       .  S
S488        H489   1.382       .  S
C493        C494   1.395       .  A
C493        C498   1.411       .  A
C494        C495   1.392       .  A
C494        H503   1.085       .  S
C495        C496   1.430       .  A
C495        S499   1.795       .  S
C496        C497   1.407       .  A
C497        C498   1.413       .  A
C497        H504   1.070       .  S
C498        S500   1.806       .  S
S499        H502   1.362       .  S
C505        C506   1.406       .  A
C505        C510   1.418       .  A
C506        C507   1.408       .  A
C506        H515   1.068       .  S
C507        C508   1.422       .  A
C508        C509   1.403       .  A
C509        C510   1.402       .  A
C509        H516   1.082       .  S
C510        S512   1.791       .  S
S511        H514   1.401       .  S
S512        H513   1.407       .  S
C517        C518   1.394       .  A
C517        C522   1.408       .  A
C518        C519   1.396       .  A
C519        C520   1.441       .  A
C519        S523   1.804       .  S
C520        C521   1.412       .  A
C521        C522   1.400       .  A
C521        H528   1.070       .  S
S523        H526   1.362       .  S
S524        H525   1.396       .  S
C529        C530   1.589       .  S
C529        C531   1.577       .  S
C529        C533   1.573       .  S
C529        C652   1.567       .  S
C530        C532   1.573       .  S
C530        C534   1.545       .  S
C530        C637   1.569       .  S
C531        C532   1.593       .  S
C531        C535   1.573       .  S
C531        C628   1.582       .  S
C532        C536   1.589       .  S
C532        C613   1.545       .  S
C533        C534   1.567       .  S
C533        C535   1.598       .  S
C533        C601   1.553       .  S
C534        C536   1.592       .  S
C534        C592   1.568       .  S
C535        C536   1.582       .  S
C535        C577   1.580       .  S
C536        C568   1.574       .  S
O537        C547   1.279       .  A
O538        C548   1.283       .  A
O538       Cu545   2.028       .  S
O539        C549   1.276       .  A
O540        C550   1.275   1_554  A
O540       Cu545   2.015       .  S
O541        C550   1.282   1_554  A
O541       Cu546   2.024       .  S
O542        C549   1.279       .  A
O543        C548   1.275       .  A
O543       Cu546   2.009       .  S
O544        C547   1.278       .  A
Cu545      Cu546   2.361       .  S
C547        C757   1.487   1_554  S
C548        C589   1.499       .  S
C549        C580   1.492       .  S
C550        C772   1.502       .  S
O551        C825   1.280       .  A
O551       Cu559   2.026       .  S
O552        C562   1.279       .  A
O552       Cu559   2.027       .  S
O553        C827   1.276       .  A
O553       Cu559   2.004       .  S
O554        C564   1.275   1_554  A
O554       Cu559   1.995       .  S
O555        C564   1.276   1_554  A
O555       Cu560   2.000       .  S
O556        C827   1.276       .  A
O556       Cu560   2.003       .  S
O557        C562   1.276       .  A
O557       Cu560   1.987       .  S
O558        C825   1.276       .  A
O558       Cu560   1.985       .  S
Cu559      Cu560   2.377       .  S
C561        O815   1.280       .  A
C561        O822   1.276       .  A
C561        C781   1.475   1_554  S
C562        C565   1.479       .  S
C563        O817   1.276       .  A
C563        O820   1.276       .  A
C563        C604   1.463       .  S
C564        C748   1.458       .  S
C565        C566   1.389       .  A
C565        C570   1.404       .  A
C566        C567   1.398       .  A
C566        H575   1.084       .  S
C567        C568   1.429       .  A
C567        S571   1.778       .  S
C568        C569   1.417       .  A
C569        C570   1.404       .  A
C569        H576   1.070       .  S
C570        S572   1.799       .  S
S571        H574   1.408       .  S
S572        H573   1.404       .  S
C577        C578   1.413       .  A
C577        C582   1.419       .  A
C578        C579   1.398       .  A
C578        H587   1.068       .  S
C579        C580   1.412       .  A
C579        S583   1.806       .  S
C580        C581   1.405       .  A
C581        C582   1.410       .  A
C581        H588   1.083       .  S
C582        S584   1.800       .  S
S583        H586   1.407       .  S
S584        H585   1.407       .  S
C589        C590   1.400       .  A
C589        C594   1.421       .  A
C590        C591   1.401       .  A
C590        H599   1.082       .  S
C591        C592   1.418       .  A
C591        S595   1.788       .  S
C592        C593   1.406       .  A
C593        C594   1.407       .  A
C593        H600   1.068       .  S
C594        S596   1.801       .  S
S595        H598   1.407       .  S
S596        H597   1.408       .  S
C601        C602   1.410       .  A
C601        C606   1.437       .  A
C602        C603   1.388       .  A
C602        H611   1.074       .  S
C603        C604   1.403       .  A
C603        S607   1.803       .  S
C604        C605   1.395       .  A
C605        C606   1.403       .  A
C605        H612   1.085   1_545  S
C606        S608   1.801       .  S
S607        H610   1.400       .  S
S608        H609   1.379       .  S
C613        C614   1.409       .  A
C613        C618   1.436       .  A
C614        C615   1.386       .  A
C614        H623   1.072       .  S
C615        C616   1.399       .  A
C615        S619   1.800       .  S
C616        C696   1.458       .  S
C616        C617   1.395       .  A
C617        C618   1.403       .  A
C617        H624   1.085       .  S
C618        S620   1.797       .  S
S619        H754   1.403       .  S
S620        H621   1.382       .  S
H622        S751   1.403       .  S
C625        C679   1.487       .  S
C625        C626   1.395       .  A
C625        C630   1.411       .  A
C626        C627   1.392       .  A
C626        H635   1.085       .  S
C627        C628   1.430       .  A
C627        S631   1.795       .  S
C628        C629   1.407       .  A
C629        C630   1.414       .  A
C629        H636   1.070       .  S
C630        S632   1.806       .  S
S631        H634   1.362       .  S
S632        H765   1.406       .  S
H633        S764   1.406       .  S
C637        C638   1.406       .  A
C637        C642   1.418       .  A
C638        C639   1.408       .  A
C638        H647   1.068       .  S
C639        C640   1.422       .  A
C639        S775   1.803       .  S
C640        C682   1.502       .  S
C640        C641   1.403       .  A
C641        C642   1.402       .  A
C641        H648   1.082       .  S
C642        S644   1.791       .  S
S643        C771   1.803       .  S
S643        H646   1.401       .  S
S644        H645   1.407       .  S
C649        C693   1.476       .  S
C649        C650   1.394       .  A
C649        C654   1.407       .  A
C650        C651   1.396       .  A
C650        H923   1.086       .  S
C651        C652   1.441       .  A
C651        S655   1.804       .  S
C652        C653   1.413       .  A
C653        C654   1.400       .  A
C653        H660   1.070       .  S
C654        S788   1.808       .  S
S655        H658   1.362       .  S
S656        C786   1.808   1_554  S
S656        H657   1.396       .  S
H659        C914   1.086       .  S
C661        C662   1.589       .  S
C661        C663   1.577       .  S
C661        C665   1.573       .  S
C661        C784   1.567       .  S
C662        C664   1.573       .  S
C662        C666   1.545       .  S
C662        C769   1.569       .  S
C663        C664   1.593       .  S
C663        C667   1.573       .  S
C663        C760   1.582       .  S
C664        C668   1.589       .  S
C664        C745   1.545       .  S
C665        C666   1.567       .  S
C665        C667   1.599       .  S
C665        C733   1.554       .  S
C666        C668   1.592       .  S
C666        C724   1.568       .  S
C667        C668   1.582       .  S
C667        C709   1.581       .  S
C668        C700   1.574       .  S
O669        C679   1.279       .  A
O670        C680   1.283       .  A
O670       Cu677   2.027       .  S
O671        C681   1.276       .  A
O672        C682   1.275       .  A
O672       Cu677   2.015       .  S
O673        C682   1.282       .  A
O673       Cu678   2.024       .  S
O674        C681   1.279       .  A
O675        C680   1.275       .  A
O675       Cu678   2.009       .  S
O676        C679   1.278       .  A
Cu677      Cu678   2.361       .  S
C680        C721   1.499       .  S
C681        C712   1.492       .  S
O683        C957   1.280       .  A
O683       Cu691   2.027       .  S
O684        C694   1.279       .  A
O684       Cu691   2.028       .  S
O685        C959   1.276       .  A
O685       Cu691   2.005       .  S
O686        C696   1.275       .  A
O686       Cu691   1.995       .  S
O687        C696   1.276       .  A
O687       Cu692   2.000       .  S
O688        C959   1.276       .  A
O688       Cu692   2.003       .  S
O689        C694   1.276       .  A
O689       Cu692   1.988       .  S
O690        C957   1.276       .  A
O690       Cu692   1.985       .  S
Cu691      Cu692   2.377       .  S
C693        O947   1.280       .  A
C693        O954   1.276       .  A
C694        C697   1.480       .  S
C695        O949   1.276       .  A
C695        O952   1.276       .  A
C695        C736   1.463       .  S
C697        C698   1.390       .  A
C697        C702   1.404       .  A
C698        C699   1.398       .  A
C698        H707   1.084       .  S
C699        C700   1.429       .  A
C699        S703   1.779       .  S
C700        C701   1.417       .  A
C701        C702   1.403       .  A
C701        H708   1.070       .  S
C702        S704   1.799       .  S
S703        H706   1.408       .  S
S704        H705   1.404       .  S
C709        C710   1.413       .  A
C709        C714   1.419       .  A
C710        C711   1.398       .  A
C710        H719   1.068       .  S
C711        C712   1.412       .  A
C711        S715   1.805       .  S
C712        C713   1.405       .  A
C713        C714   1.410       .  A
C713        H720   1.083       .  S
C714        S716   1.800       .  S
S715        H718   1.407       .  S
S716        H717   1.407       .  S
C721        C722   1.400       .  A
C721        C726   1.421       .  A
C722        C723   1.401       .  A
C722        H731   1.082       .  S
C723        C724   1.417       .  A
C723        S727   1.788       .  S
C724        C725   1.407       .  A
C725        C726   1.407       .  A
C725        H732   1.068       .  S
C726        S728   1.801       .  S
S727        H730   1.407       .  S
S728        H729   1.408       .  S
C733        C734   1.410       .  A
C733        C738   1.438       .  A
C734        C735   1.387       .  A
C734        H743   1.074       .  S
C735        C736   1.403       .  A
C735        S739   1.803       .  S
C736        C737   1.395       .  A
C737        C738   1.403       .  A
C737        H744   1.085   1_545  S
C738        S740   1.801       .  S
S739        H742   1.400       .  S
S740        H741   1.379       .  S
C745        C746   1.409       .  A
C745        C750   1.436       .  A
C746        C747   1.386       .  A
C746        H755   1.072       .  S
C747        C748   1.399       .  A
C747        S751   1.800   1_556  S
C748        C749   1.395       .  A
C749        C750   1.403       .  A
C749        H756   1.085       .  S
C750        S752   1.797       .  S
S752        H753   1.382       .  S
C757        C758   1.395       .  A
C757        C762   1.411       .  A
C758        C759   1.392       .  A
C758        H767   1.085       .  S
C759        C760   1.430       .  A
C759        S763   1.795       .  S
C760        C761   1.407       .  A
C761        C762   1.413       .  A
C761        H768   1.070       .  S
C762        S764   1.806       .  S
S763        H766   1.362       .  S
C769        C770   1.406       .  A
C769        C774   1.418       .  A
C770        C771   1.408       .  A
C770        H779   1.068       .  S
C771        C772   1.422       .  A
C772        C773   1.403       .  A
C773        C774   1.402       .  A
C773        H780   1.082       .  S
C774        S776   1.791       .  S
S775        H778   1.401       .  S
S776        H777   1.407       .  S
C781        C782   1.394       .  A
C781        C786   1.408       .  A
C782        C783   1.396       .  A
C782       H1055   1.086       .  S
C783        C784   1.441       .  A
C783        S787   1.804       .  S
C784        C785   1.412       .  A
C785        C786   1.400       .  A
C785        H792   1.070       .  S
S787        H790   1.362       .  S
S788        H789   1.396       .  S
H791       C1046   1.086       .  S
C793        C794   1.589       .  S
C793        C795   1.577       .  S
C793        C797   1.573       .  S
C793        C916   1.567       .  S
C794        C796   1.573       .  S
C794        C798   1.545       .  S
C794        C901   1.569       .  S
C795        C796   1.593       .  S
C795        C799   1.573       .  S
C795        C892   1.582       .  S
C796        C800   1.589       .  S
C796        C877   1.545       .  S
C797        C798   1.567       .  S
C797        C799   1.598       .  S
C797        C865   1.553       .  S
C798        C800   1.592       .  S
C798        C856   1.568       .  S
C799        C800   1.582       .  S
C799        C841   1.580       .  S
C800        C832   1.574       .  S
O801        C811   1.279       .  A
O802        C812   1.283       .  A
O802       Cu809   2.028       .  S
O803        C813   1.276       .  A
O804        C814   1.275   1_554  A
O804       Cu809   2.015       .  S
O805        C814   1.282   1_554  A
O805       Cu810   2.024       .  S
O806        C813   1.279       .  A
O807        C812   1.275       .  A
O807       Cu810   2.009       .  S
O808        C811   1.278       .  A
Cu809      Cu810   2.361       .  S
C811       C1021   1.487   1_554  S
C812        C853   1.499       .  S
C813        C844   1.492       .  S
C814       C1036   1.502       .  S
O815       Cu823   2.026   1_545  S
O816        C826   1.279       .  A
O816       Cu823   2.027       .  S
O817       Cu823   2.004   1_545  S
O818        C828   1.275   1_554  A
O818       Cu823   1.995       .  S
O819        C828   1.276   1_554  A
O819       Cu824   2.000       .  S
O820       Cu824   2.003   1_545  S
O821        C826   1.276       .  A
O821       Cu824   1.987       .  S
O822       Cu824   1.985   1_545  S
Cu823      Cu824   2.377       .  S
C825       C1045   1.475   1_554  S
C826        C829   1.479       .  S
C827        C868   1.463       .  S
C828       C1012   1.458       .  S
C829        C830   1.389       .  A
C829        C834   1.404       .  A
C830        C831   1.398       .  A
C830        H839   1.084       .  S
C831        C832   1.429       .  A
C831        S835   1.778       .  S
C832        C833   1.417       .  A
C833        C834   1.404       .  A
C833        H840   1.070       .  S
C834        S836   1.799       .  S
S835        H838   1.408       .  S
S836        H837   1.404       .  S
C841        C842   1.413       .  A
C841        C846   1.419       .  A
C842        C843   1.398       .  A
C842        H851   1.068       .  S
C843        C844   1.412       .  A
C843        S847   1.806       .  S
C844        C845   1.405       .  A
C845        C846   1.410       .  A
C845        H852   1.083       .  S
C846        S848   1.800       .  S
S847        H850   1.407       .  S
S848        H849   1.407       .  S
C853        C854   1.400       .  A
C853        C858   1.421       .  A
C854        C855   1.401       .  A
C854        H863   1.082       .  S
C855        C856   1.418       .  A
C855        S859   1.788       .  S
C856        C857   1.406       .  A
C857        C858   1.407       .  A
C857        H864   1.068       .  S
C858        S860   1.801       .  S
S859        H862   1.407       .  S
S860        H861   1.408       .  S
C865        C866   1.410       .  A
C865        C870   1.437       .  A
C866        C867   1.388       .  A
C866        H875   1.074       .  S
C867        C868   1.403       .  A
C867        S871   1.803       .  S
C868        C869   1.395       .  A
C869        C870   1.403       .  A
C869        H876   1.085       .  S
C870        S872   1.801       .  S
S871        H874   1.400       .  S
S872        H873   1.379       .  S
C877        C878   1.409       .  A
C877        C882   1.436       .  A
C878        C879   1.386       .  A
C878        H887   1.072       .  S
C879        C880   1.399       .  A
C879        S883   1.800       .  S
C880        C960   1.458       .  S
C880        C881   1.395       .  A
C881        C882   1.403       .  A
C881        H888   1.085       .  S
C882        S884   1.797       .  S
S883       H1018   1.403       .  S
S884        H885   1.382       .  S
H886       S1015   1.403       .  S
C889        C943   1.487       .  S
C889        C890   1.395       .  A
C889        C894   1.411       .  A
C890        C891   1.392       .  A
C890        H899   1.085       .  S
C891        C892   1.430       .  A
C891        S895   1.795       .  S
C892        C893   1.407       .  A
C893        C894   1.414       .  A
C893        H900   1.070       .  S
C894        S896   1.806       .  S
S895        H898   1.362       .  S
S896       H1029   1.406       .  S
H897       S1028   1.406       .  S
C901        C902   1.406       .  A
C901        C906   1.418       .  A
C902        C903   1.408       .  A
C902        H911   1.068       .  S
C903        C904   1.422       .  A
C903       S1039   1.803       .  S
C904        C946   1.502       .  S
C904        C905   1.403       .  A
C905        C906   1.402       .  A
C905        H912   1.082       .  S
C906        S908   1.791       .  S
S907       C1035   1.803       .  S
S907        H910   1.401       .  S
S908        H909   1.407       .  S
C913        C957   1.476       .  S
C913        C914   1.394       .  A
C913        C918   1.407       .  A
C914        C915   1.396       .  A
C915        C916   1.441       .  A
C915        S919   1.804       .  S
C916        C917   1.413       .  A
C917        C918   1.400       .  A
C917        H924   1.070       .  S
C918       S1052   1.808       .  S
S919        H922   1.362       .  S
S920       C1050   1.808   1_554  S
S920        H921   1.396       .  S
C925        C926   1.589       .  S
C925        C927   1.577       .  S
C925        C929   1.573       .  S
C925       C1048   1.567       .  S
C926        C928   1.573       .  S
C926        C930   1.545       .  S
C926       C1033   1.569       .  S
C927        C928   1.593       .  S
C927        C931   1.573       .  S
C927       C1024   1.582       .  S
C928        C932   1.589       .  S
C928       C1009   1.545       .  S
C929        C930   1.567       .  S
C929        C931   1.599       .  S
C929        C997   1.554       .  S
C930        C932   1.592       .  S
C930        C988   1.568       .  S
C931        C932   1.582       .  S
C931        C973   1.581       .  S
C932        C964   1.574       .  S
O933        C943   1.279       .  A
O934        C944   1.283       .  A
O934       Cu941   2.027       .  S
O935        C945   1.276       .  A
O936        C946   1.275       .  A
O936       Cu941   2.015       .  S
O937        C946   1.282       .  A
O937       Cu942   2.024       .  S
O938        C945   1.279       .  A
O939        C944   1.275       .  A
O939       Cu942   2.009       .  S
O940        C943   1.278       .  A
Cu941      Cu942   2.361       .  S
C944        C985   1.499       .  S
C945        C976   1.492       .  S
O947       Cu955   2.027   1_545  S
O948        C958   1.279       .  A
O948       Cu955   2.028       .  S
O949       Cu955   2.005   1_545  S
O950        C960   1.275       .  A
O950       Cu955   1.995       .  S
O951        C960   1.276       .  A
O951       Cu956   2.000       .  S
O952       Cu956   2.003   1_545  S
O953        C958   1.277       .  A
O953       Cu956   1.988       .  S
O954       Cu956   1.985   1_545  S
Cu955      Cu956   2.377       .  S
C958        C961   1.480       .  S
C959       C1000   1.463       .  S
C961        C962   1.390       .  A
C961        C966   1.404       .  A
C962        C963   1.398       .  A
C962        H971   1.084       .  S
C963        C964   1.429       .  A
C963        S967   1.779       .  S
C964        C965   1.417       .  A
C965        C966   1.403       .  A
C965        H972   1.070       .  S
C966        S968   1.799       .  S
S967        H970   1.408       .  S
S968        H969   1.404       .  S
C973        C974   1.413       .  A
C973        C978   1.419       .  A
C974        C975   1.398       .  A
C974        H983   1.068       .  S
C975        C976   1.412       .  A
C975        S979   1.805       .  S
C976        C977   1.405       .  A
C977        C978   1.410       .  A
C977        H984   1.083       .  S
C978        S980   1.800       .  S
S979        H982   1.407       .  S
S980        H981   1.407       .  S
C985        C986   1.400       .  A
C985        C990   1.421       .  A
C986        C987   1.401       .  A
C986        H995   1.082       .  S
C987        C988   1.417       .  A
C987        S991   1.788       .  S
C988        C989   1.407       .  A
C989        C990   1.407       .  A
C989        H996   1.068       .  S
C990        S992   1.801       .  S
S991        H994   1.407       .  S
S992        H993   1.408       .  S
C997        C998   1.410       .  A
C997       C1002   1.438       .  A
C998        C999   1.387       .  A
C998       H1007   1.074       .  S
C999       C1000   1.403       .  A
C999       S1003   1.803       .  S
C1000      C1001   1.395       .  A
C1001      C1002   1.403       .  A
C1001      H1008   1.085       .  S
C1002      S1004   1.801       .  S
S1003      H1006   1.400       .  S
S1004      H1005   1.379       .  S
C1009      C1010   1.409       .  A
C1009      C1014   1.436       .  A
C1010      C1011   1.386       .  A
C1010      H1019   1.072       .  S
C1011      C1012   1.399       .  A
C1011      S1015   1.800   1_556  S
C1012      C1013   1.395       .  A
C1013      C1014   1.403       .  A
C1013      H1020   1.085       .  S
C1014      S1016   1.797       .  S
S1016      H1017   1.382       .  S
C1021      C1022   1.395       .  A
C1021      C1026   1.411       .  A
C1022      C1023   1.392       .  A
C1022      H1031   1.085       .  S
C1023      C1024   1.430       .  A
C1023      S1027   1.795       .  S
C1024      C1025   1.407       .  A
C1025      C1026   1.413       .  A
C1025      H1032   1.070       .  S
C1026      S1028   1.806       .  S
S1027      H1030   1.362       .  S
C1033      C1034   1.406       .  A
C1033      C1038   1.418       .  A
C1034      C1035   1.408       .  A
C1034      H1043   1.068       .  S
C1035      C1036   1.422       .  A
C1036      C1037   1.403       .  A
C1037      C1038   1.402       .  A
C1037      H1044   1.082       .  S
C1038      S1040   1.791       .  S
S1039      H1042   1.401       .  S
S1040      H1041   1.407       .  S
C1045      C1046   1.394       .  A
C1045      C1050   1.408       .  A
C1046      C1047   1.396       .  A
C1047      C1048   1.441       .  A
C1047      S1051   1.804       .  S
C1048      C1049   1.412       .  A
C1049      C1050   1.400       .  A
C1049      H1056   1.070       .  S
S1051      H1054   1.362       .  S
S1052      H1053   1.396       .  S
