geometry optimzed in LAMMPS
_audit_creation_date              2020-11-30 
_audit_creation_method            'lammps2cif' 
_symmetry_space_group_name_H-M    'P1' 
_symmetry_Int_Tables_number       1 
_symmetry_cell_setting            triclinic 
loop_ 
_symmetry_equiv_pos_as_xyz 
  x,y,z 
_cell_length_a                    30.98022778 
_cell_length_b                    30.78303804500632 
_cell_length_c                    30.365943713780993 
_cell_angle_alpha                 88.88909001745095 
_cell_angle_beta                  90.78715975719567 
_cell_angle_gamma                 120.28819807407183 
loop_ 
_atom_site_label 
_atom_site_type_symbol 
_atom_site_fract_x 
_atom_site_fract_y 
_atom_site_fract_z 
_atom_site_charge 
C1          C  0.23527032  0.93873720  0.10296173     0.04100
C2          C  0.26952356  0.98347075  0.12402366    -0.12000
C3          C  0.26524958  0.02643347  0.12051627     0.01600
C4          C  0.22361765  0.02350565  0.09954982    -0.10600
C5          C  0.18874218  0.97962764  0.07811683     0.04100
C6          C  0.19481223  0.93701643  0.07919329    -0.10000
H7          H  0.30213965  0.98617453  0.14034920     0.09700
H8          H  0.22146818  0.05744748  0.09534590     0.07200
H9          H  0.16983514  0.90403956  0.06041406     0.07100
C10         C  0.60192623  0.45387863  0.18992372     0.04100
C11         C  0.64082503  0.45286615  0.21445893    -0.12000
C12         C  0.64438491  0.40853957  0.21597870     0.01600
C13         C  0.60794598  0.36566474  0.19443722    -0.10600
C14         C  0.56724653  0.36518795  0.17360241     0.04100
C15         C  0.56536648  0.40954886  0.16985545    -0.10000
H16         H  0.66723553  0.48564142  0.23275140     0.09700
H17         H  0.60836445  0.33071492  0.19773595     0.07200
H18         H  0.53334873  0.40866829  0.15401173     0.07100
C19         C  0.16895765  0.26069744  0.11192432     0.04100
C20         C  0.12480186  0.25009219  0.13367101    -0.12000
C21         C  0.08151497  0.20323450  0.13010842     0.01600
C22         C  0.08194291  0.16567916  0.10590357    -0.10600
C23         C  0.12406007  0.17552999  0.08199285     0.04100
C24         C  0.16801059  0.22327935  0.08472024    -0.10000
H25         H  0.12338341  0.27910505  0.15219641     0.09700
H26         H  0.04790790  0.12942307  0.10328417     0.07200
H27         H  0.20087285  0.23069682  0.06650966     0.07100
C28         C  0.66351018  0.10792652  0.22050248     0.04100
C29         C  0.71108892  0.11281105  0.21735081    -0.12000
C30         C  0.75454947  0.15812480  0.22657631     0.01600
C31         C  0.75090334  0.19932688  0.23950463    -0.10600
C32         C  0.70458064  0.19590884  0.24438006     0.04100
C33         C  0.66023168  0.14964001  0.23558128    -0.10000
H34         H  0.71446730  0.08155531  0.20589101     0.09700
H35         H  0.78479888  0.23432478  0.24709887     0.07200
H36         H  0.62417779  0.14676415  0.23917293     0.07100
C37         C  0.00424151  0.52546619  0.23797444     0.04100
C38         C  0.96114467  0.48080002  0.25311570    -0.12000
C39         C  0.91269549  0.47417848  0.24610454     0.01600
C40         C  0.90817719  0.51196542  0.22420360    -0.10600
C41         C  0.95031589  0.55686404  0.21135254     0.04100
C42         C  0.99792266  0.56331955  0.21766144    -0.10000
H43         H  0.96527978  0.45202717  0.27044685     0.09700
H44         H  0.87155149  0.50811498  0.22007663     0.07200
H45         H  0.03014683  0.59779367  0.20597298     0.07100
C46         C  0.83079668  0.85900260  0.07578250     0.04100
C47         C  0.83864625  0.82217014  0.09632207    -0.12000
C48         C  0.88574018  0.82664741  0.09648131     0.01600
C49         C  0.92627451  0.86974298  0.07880436    -0.10600
C50         C  0.91982716  0.90663582  0.05740828     0.04100
C51         C  0.87168492  0.90124937  0.05533717    -0.10000
H52         H  0.80747553  0.78880301  0.11085546     0.09700
H53         H  0.96291482  0.87320841  0.07957906     0.07200
H54         H  0.86605231  0.92890616  0.03768556     0.07100
C55         C  0.38390897  0.71575919  0.14058234     0.03300
C56         C  0.35837171  0.66259877  0.14592163     0.03300
C57         C  0.38484609  0.63622418  0.14100890     0.03300
C58         C  0.43817185  0.66386466  0.13603134     0.03300
C59         C  0.46357563  0.71759557  0.13205318     0.03300
C60         C  0.43682071  0.74364718  0.13686191     0.03300
O61         O  0.81610635  0.45572903  0.39282466    -0.77500
C62         C  0.80686845  0.31088925  0.40751874     0.83500
O63         O  0.82624046  0.40982302  0.24519936    -0.78600
O64         O  0.69149525  0.23531365  0.30406575    -0.80100
O65         O  0.63741055  0.33671348  0.37985136    -0.79900
O66         O  0.74071665  0.44682012  0.38214372    -0.78500
Zn67       Zn  0.81186795  0.39966207  0.35475687     1.55700
O68         O  0.65429946  0.27489130  0.38925818    -0.79900
Cd69       Cd  0.70074110  0.38666014  0.34243837     1.59700
Cd70       Cd  0.75083842  0.35786877  0.26250229     1.59600
O71         O  0.67737401  0.41006623  0.28713148    -0.79900
O72         O  0.74549986  0.35902664  0.32784566    -1.90400
Cd73       Cd  0.71482867  0.28877494  0.35254491     1.59900
O74         O  0.70215054  0.38005331  0.23256196    -0.79900
O75         O  0.76357866  0.27781897  0.39410824    -0.78500
C76         C  0.86663085  0.43446580  0.26781680     0.84000
C77         C  0.78368765  0.46846570  0.40040134     0.83700
O78         O  0.82694679  0.35647595  0.39431929    -0.77500
C79         C  0.62780548  0.29478703  0.39730035     0.84500
O80         O  0.86672372  0.43159675  0.30964202    -0.77600
C81         C  0.67816898  0.40107655  0.24648363     0.84600
C82         C  0.70630716  0.24013604  0.26448867     0.84900
O83         O  0.73050807  0.28333667  0.24510429    -0.80000
C84         C  0.66361663  0.86645273  0.54577460     0.04100
C85         C  0.61845193  0.82204808  0.55753706    -0.12000
C86         C  0.57177991  0.81966556  0.55145304     0.01600
C87         C  0.57118512  0.86133909  0.53265414    -0.10600
C88         C  0.61520034  0.90556132  0.52228392     0.04100
C89         C  0.66098091  0.90766062  0.52798486    -0.10000
H90         H  0.61985032  0.79110300  0.57365425     0.09700
H91         H  0.53626288  0.86125900  0.52963211     0.07200
H92         H  0.69489481  0.94236538  0.51958073     0.07100
C93         C  0.49776888  0.21725643  0.44680705     0.04100
C94         C  0.50786653  0.18557970  0.47366972    -0.12000
C95         C  0.55682828  0.19569394  0.47959169     0.01600
C96         C  0.59591380  0.23993176  0.46186831    -0.10600
C97         C  0.58677245  0.26723569  0.42943495     0.04100
C98         C  0.53740084  0.25752306  0.42319226    -0.10000
H99         H  0.47720919  0.15095588  0.48697283     0.09700
H100        H  0.63377229  0.24726963  0.46691957     0.07200
H101        H  0.52938341  0.27807469  0.39819326     0.07100
C102        C  0.31998988  0.43905284  0.54051105     0.04100
C103        C  0.36500788  0.43829492  0.53818827    -0.12000
C104        C  0.41038320  0.48019901  0.54964414     0.01600
C105        C  0.41118682  0.52295222  0.56448564    -0.10600
C106        C  0.36778728  0.52640391  0.56703042     0.04100
C107        C  0.32124942  0.48340292  0.55555639    -0.10000
H108        H  0.36492193  0.40538305  0.52599444     0.09700
H109        H  0.44725195  0.55441206  0.57371145     0.07200
H110        H  0.28707467  0.48476534  0.55717058     0.07100
C111        C  0.83312427  0.59143487  0.46180140     0.04100
C112        C  0.83388523  0.55487449  0.43477127    -0.12000
C113        C  0.79212059  0.50570998  0.43411496     0.01600
C114        C  0.75132763  0.49329110  0.46133047    -0.10600
C115        C  0.74899665  0.52979519  0.48559225     0.04100
C116        C  0.79068219  0.57793290  0.48771616    -0.10000
H117        H  0.86432944  0.56557195  0.41198705     0.09700
H118        H  0.71833800  0.45608018  0.45974300     0.07200
H119        H  0.78814737  0.60635027  0.50620199     0.07100
C120        C  0.23308490  0.76542134  0.53402950     0.04100
C121        C  0.19276778  0.71850837  0.52100423    -0.12000
C122        C  0.19574319  0.67485909  0.52406685     0.01600
C123        C  0.24097648  0.67832557  0.53580453    -0.10600
C124        C  0.28196788  0.72372562  0.54996993     0.04100
C125        C  0.27809726  0.76783514  0.54865619    -0.10000
H126        H  0.15740799  0.71514062  0.51143495     0.09700
H127        H  0.24235064  0.64383219  0.53771288     0.07200
H128        H  0.30828263  0.80260978  0.56158227     0.07100
C129        C  0.86547808  0.24476337  0.47171455     0.04100
C130        C  0.89958453  0.28498964  0.49779837    -0.12000
C131        C  0.90291398  0.33189115  0.49441695     0.01600
C132        C  0.86971593  0.33771838  0.46690549    -0.10600
C133        C  0.83520163  0.29849358  0.44030790     0.04100
C134        C  0.83302653  0.25155664  0.44275859    -0.10000
H135        H  0.92655500  0.28104193  0.51799542     0.09700
H136        H  0.87314801  0.37450502  0.46410494     0.07200
H137        H  0.80863156  0.22171207  0.42070272     0.07100
C138        C  0.04609604  0.96834093  0.46831545     0.03300
C139        C  0.01758993  0.99259196  0.47136765     0.03300
C140        C  0.04171245  0.04582234  0.46629677     0.03300
C141        C  0.09488116  0.07533759  0.46329105     0.03300
C142        C  0.12354373  0.05066076  0.46227689     0.03300
C143        C  0.09922946  0.99715705  0.46635836     0.03300
C144        C  0.58508144  0.62563169  0.75985682     0.04100
C145        C  0.54168346  0.62215825  0.74028880    -0.12000
C146        C  0.53762096  0.66575603  0.73540989     0.01600
C147        C  0.57740547  0.71234923  0.74823960    -0.10600
C148        C  0.62113376  0.71648078  0.76552921     0.04100
C149        C  0.62401010  0.67319638  0.77316926    -0.10000
H150        H  0.51247358  0.58667840  0.72752553     0.09700
H151        H  0.57585878  0.74632808  0.74166986     0.07200
H152        H  0.65834614  0.67716025  0.78673325     0.07100
C153        C  0.94582531  0.13844372  0.84718504     0.04100
C154        C  0.91606901  0.10115749  0.81677221    -0.12000
C155        C  0.91688288  0.05620906  0.81459779     0.01600
C156        C  0.95115609  0.05042195  0.84081156    -0.10600
C157        C  0.98347240  0.08783051  0.87022135     0.04100
C158        C  0.98073477  0.13237221  0.87340113    -0.10000
H159        H  0.88881224  0.10539018  0.79724725     0.09700
H160        H  0.95023645  0.01481185  0.84059393     0.07200
H161        H  0.00294853  0.16022886  0.89780806     0.07100
C162        C  0.50857524  0.94924646  0.74742541     0.04100
C163        C  0.50624542  0.90754256  0.72642895    -0.12000
C164        C  0.46355615  0.85935842  0.73191228     0.01600
C165        C  0.42420701  0.85343256  0.75801529    -0.10600
C166        C  0.42491676  0.89506694  0.77591878     0.04100
C167        C  0.46754115  0.94249414  0.77197639    -0.10000
H168        H  0.53648581  0.91271450  0.70539062     0.09700
H169        H  0.38998126  0.81713949  0.75964650     0.07200
H170        H  0.46742930  0.97477205  0.78552317     0.07100
C171        C  0.99497858  0.79702517  0.83612911     0.04100
C172        C  0.03926555  0.80215835  0.81900561    -0.12000
C173        C  0.08491741  0.84614694  0.82438695     0.01600
C174        C  0.08725591  0.88563027  0.84776848    -0.10600
C175        C  0.04462423  0.88171873  0.86729250     0.04100
C176        C  0.99771957  0.83721435  0.86079631    -0.10000
H177        H  0.03853020  0.77114320  0.80197768     0.09700
H178        H  0.12358078  0.91886483  0.85264484     0.07200
H179        H  0.96434909  0.83352800  0.87540329     0.07100
C180        C  0.34240066  0.19239618  0.87244892     0.04100
C181        C  0.29785956  0.15056145  0.88942277    -0.12000
C182        C  0.25577226  0.15581185  0.89839777     0.01600
C183        C  0.25984553  0.20282469  0.89042725    -0.10600
C184        C  0.30339835  0.24362947  0.87437008     0.04100
C185        C  0.34469775  0.23882684  0.86604439    -0.10000
H186        H  0.29595208  0.11479547  0.89501454     0.09700
H187        H  0.22852532  0.20841648  0.89613512     0.07200
H188        H  0.37835729  0.27105066  0.85320154     0.07100
C189        C  0.18019234  0.54654107  0.77356890     0.04100
C190        C  0.21826203  0.58565521  0.74808034    -0.12000
C191        C  0.26806631  0.59653414  0.75273039     0.01600
C192        C  0.27934304  0.56906770  0.78304303    -0.10600
C193        C  0.24134301  0.52626474  0.80387120     0.04100
C194        C  0.19212557  0.51633723  0.80064618    -0.10000
H195        H  0.20900907  0.60601444  0.72386636     0.09700
H196        H  0.31737926  0.57620374  0.78527392     0.07200
H197        H  0.16253337  0.48304109  0.81664431     0.07100
C198        C  0.73118876  0.31682201  0.79242332     0.03300
C199        C  0.70177026  0.34025357  0.79579629     0.03300
C200        C  0.72498429  0.39377056  0.79155782     0.03300
C201        C  0.77827456  0.42388616  0.78725746     0.03300
C202        C  0.80768226  0.39995901  0.78637966     0.03300
C203        C  0.78412865  0.34651011  0.79086442     0.03300
O204        O  0.99834610  0.02884971  0.90893845    -0.77500
C205        C  0.05299341  0.92334570  0.89700727     0.83500
O206        O  0.00447273  0.97105057  0.05628763    -0.78600
O207        O  0.15881790  0.98421977  0.00708953    -0.80100
O208        O  0.17469895  0.12814626  0.92537732    -0.79900
O209        O  0.05582344  0.10964920  0.91620072    -0.78500
Zn210      Zn  0.01729792  0.98554463  0.94602176     1.55700
O211        O  0.19849684  0.07103085  0.92565216    -0.79900
Cd212      Cd  0.10732910  0.10080554  0.95618551     1.59700
Cd213      Cd  0.07756293  0.02227759  0.03872882     1.59600
O214        O  0.12434773  0.14645771  0.01055127    -0.79900
O215        O  0.08304360  0.02885818  0.97334422    -1.90400
Cd216      Cd  0.13361491  0.01007435  0.95441747     1.59900
O217        O  0.09900312  0.09122938  0.06653764    -0.79900
O218        O  0.09748081  0.95135793  0.91146501    -0.78500
C219        C  0.96409982  0.94627473  0.03420868     0.84000
C220        C  0.01441385  0.07532438  0.90025664     0.83700
O221        O  0.01745980  0.93078638  0.90756781    -0.77500
C222        C  0.20713005  0.11550470  0.91709525     0.84500
O223        O  0.96303129  0.94966335  0.99235196    -0.77600
C224        C  0.11740769  0.13608306  0.05150910     0.84600
C225        C  0.15360728  0.98509560  0.04854632     0.84900
O226        O  0.12465851  0.99860634  0.06512406    -0.80000
O227        O  0.31360381  0.67664897  0.58638957    -0.77500
C228        C  0.37554101  0.57580463  0.58301036     0.83500
O229        O  0.35170866  0.65708400  0.73645400    -0.78600
O230        O  0.49482775  0.66042240  0.66907389    -0.80100
O231        O  0.49038177  0.79080532  0.57839643    -0.79900
O232        O  0.36522744  0.75946232  0.58134153    -0.78500
Zn233      Zn  0.34301707  0.64434192  0.62563661     1.55700
O234        O  0.51906854  0.73751714  0.58425215    -0.79900
Cd235      Cd  0.42674012  0.76319243  0.61579839     1.59700
Cd236      Cd  0.41983978  0.70250044  0.70674237     1.59600
O237        O  0.44839176  0.81701520  0.66436607    -0.79900
O238        O  0.41116262  0.69624426  0.64152254    -1.90400
Cd239      Cd  0.45985001  0.67778058  0.61874915     1.59900
O240        O  0.44480102  0.77535897  0.72639641    -0.79900
O241        O  0.42078714  0.61216841  0.58423508    -0.78500
C242        C  0.30789138  0.62814316  0.72131052     0.84000
C243        C  0.32309719  0.72031011  0.57316211     0.83700
O244        O  0.33990343  0.58097065  0.59778162    -0.77500
C245        C  0.52431686  0.77972454  0.57170460     0.84500
O246        O  0.29916521  0.62103500  0.68014581    -0.77600
C247        C  0.45380657  0.81555027  0.70591817     0.84600
C248        C  0.49743500  0.66738711  0.71039892     0.84900
O249        O  0.47170428  0.68326571  0.72947382    -0.80000
C250        C  0.05841007  0.54861702  0.77978413    -0.13400
C251        C  0.02345324  0.49754706  0.77372585     0.17000
C252        C  0.04021333  0.46444153  0.76264031     0.03300
C253        C  0.09137320  0.48182092  0.76035652    -0.11900
C254        C  0.12681380  0.53227614  0.76893756    -0.02900
C255        C  0.10995684  0.56627080  0.77726803     0.02500
C256        C  0.96932673  0.47853170  0.77832334     0.09400
N257        N  0.00549745  0.41239697  0.75573303     0.65700
H258        H  0.10353217  0.45530925  0.75313786     0.18600
N259        N  0.14455621  0.61811607  0.78537366     0.76200
H260        H  0.04565827  0.57453761  0.78744058     0.10200
C261        C  0.94510640  0.46190621  0.81914248     0.03900
C262        C  0.89277996  0.43771741  0.82116733    -0.04900
C263        C  0.86374576  0.43056405  0.78297615    -0.23200
C264        C  0.88907190  0.45141033  0.74257031     0.13100
C265        C  0.94119015  0.47383574  0.74067426    -0.12400
N266        N  0.97330030  0.46907396  0.85866307     0.64800
H267        H  0.87469743  0.42433973  0.85277562     0.12600
N268        N  0.86404452  0.45388255  0.70359501     0.61400
H269        H  0.95996097  0.48781028  0.70933249     0.08800
O270        O  0.15912762  0.63227686  0.82421272    -0.40000
O271        O  0.15314435  0.65049363  0.75547831    -0.39200
O272        O  0.99216901  0.39630046  0.71715050    -0.39200
O273        O  0.99311292  0.38169493  0.78765043    -0.36900
O274        O  0.84489000  0.41686535  0.67817276    -0.37800
O275        O  0.87826609  0.49691028  0.68708554    -0.34000
O276        O  0.99195600  0.51043413  0.87840491    -0.35400
O277        O  0.98369679  0.43615796  0.87142975    -0.39700
C278        C  0.45671923  0.22040273  0.80802314    -0.13400
C279        C  0.48942210  0.22207742  0.84133734     0.17000
C280        C  0.46957364  0.20439962  0.88408950     0.03300
C281        C  0.41940739  0.18956286  0.89316535    -0.11900
C282        C  0.38787604  0.19066196  0.86010300    -0.02900
C283        C  0.40650786  0.20409474  0.81676719     0.02500
C284        C  0.54450646  0.24818172  0.83156838     0.09400
N285        N  0.50005176  0.20230038  0.91887779     0.65700
H286        H  0.40589385  0.17984707  0.92669502     0.18600
N287        N  0.37553423  0.20486307  0.78177022     0.76200
H288        H  0.47071526  0.23444102  0.77522464     0.10200
C289        C  0.56291688  0.23995559  0.79204474     0.03900
C290        C  0.61322117  0.27139237  0.78021840    -0.04900
C291        C  0.64747736  0.30891748  0.80846855    -0.23200
C292        C  0.62980737  0.31547185  0.84919787     0.13100
C293        C  0.57856556  0.28663608  0.85931427    -0.12400
N294        N  0.53131656  0.19890120  0.76407163     0.64800
H295        H  0.62575618  0.26579113  0.74886789     0.12600
N296        N  0.66351570  0.34998750  0.88127894     0.61400
H297        H  0.56534850  0.29444486  0.88927474     0.08800
O298        O  0.38397961  0.24635564  0.76526657    -0.40000
O299        O  0.34596933  0.16452918  0.76243508    -0.39200
O300        O  0.50929208  0.22952058  0.95222372    -0.39200
O301        O  0.50931340  0.16681126  0.92019562    -0.36900
O302        O  0.70252385  0.34905569  0.89214213    -0.37800
O303        O  0.65084331  0.37605764  0.90337035    -0.34000
O304        O  0.52686354  0.20694216  0.72381121    -0.35400
O305        O  0.51422145  0.15429612  0.77791616    -0.39700
C306        C  0.26416889  0.32837922  0.81974150    -0.13400
C307        C  0.28566638  0.36994204  0.84761880     0.17000
C308        C  0.31590704  0.37122409  0.88326732     0.03300
C309        C  0.32392408  0.33076310  0.89060392    -0.11900
C310        C  0.30251984  0.28951763  0.86239110    -0.02900
C311        C  0.27302713  0.28869291  0.82645966     0.02500
C312        C  0.27625029  0.41156849  0.83813541     0.09400
N313        N  0.33878890  0.41336498  0.91191982     0.65700
H314        H  0.34579156  0.33093001  0.91883418     0.18600
N315        N  0.25097167  0.24698560  0.79721652     0.76200
H316        H  0.24039941  0.32680776  0.79256360     0.10200
C317        C  0.28951549  0.43653668  0.79703677     0.03900
C318        C  0.27712311  0.47309598  0.78701337    -0.04900
C319        C  0.25222735  0.48640416  0.81751806    -0.23200
C320        C  0.23802346  0.46086901  0.85846855     0.13100
C321        C  0.25026165  0.42366508  0.86854152    -0.12400
N322        N  0.31605779  0.42544874  0.76520365     0.64800
H323        H  0.28709794  0.49128637  0.75484129     0.12600
N324        N  0.21170043  0.47245068  0.89005944     0.61400
H325        H  0.23879348  0.40363009  0.89981994     0.08800
O326        O  0.20447008  0.21658998  0.79810501    -0.40000
O327        O  0.27829403  0.23896165  0.77215815    -0.39200
O328        O  0.32046026  0.41035371  0.94947746    -0.39200
O329        O  0.38108014  0.45045433  0.90243337    -0.36900
O330        O  0.16533891  0.44321892  0.89504646    -0.37800
O331        O  0.23593278  0.50559632  0.91844920    -0.34000
O332        O  0.29366807  0.40151692  0.73106852    -0.35400
O333        O  0.36315180  0.44791703  0.76682340    -0.39700
C334        C  0.88570759  0.66416105  0.85550597    -0.13400
C335        C  0.88292767  0.64267254  0.81404402     0.17000
C336        C  0.90933735  0.67593957  0.77863273     0.03300
C337        C  0.94002596  0.72756082  0.78594787    -0.11900
C338        C  0.94826438  0.74762952  0.82843638    -0.02900
C339        C  0.91879928  0.71578680  0.86311900     0.02500
C340        C  0.85398618  0.58619864  0.80818269     0.09400
N341        N  0.90945965  0.65781557  0.73566414     0.65700
H342        H  0.96173642  0.75155069  0.75863710     0.18600
N343        N  0.92400816  0.73456149  0.90666365     0.76200
H344        H  0.86361631  0.64052398  0.88272017     0.10200
C345        C  0.85671365  0.55265948  0.83919491     0.03900
C346        C  0.83143825  0.50073258  0.83133660    -0.04900
C347        C  0.80431335  0.48025654  0.79230684    -0.23200
C348        C  0.80042073  0.51336420  0.76157749     0.13100
C349        C  0.82436293  0.56522156  0.77022691    -0.12400
N350        N  0.88660303  0.57054267  0.87817670     0.64800
H351        H  0.83337730  0.47595806  0.85610151     0.12600
N352        N  0.77176610  0.49548992  0.72184677     0.61400
H353        H  0.81985479  0.58931918  0.74651725     0.08800
O354        O  0.96027895  0.74099029  0.93068584    -0.40000
O355        O  0.89418816  0.74800021  0.91999505    -0.39200
O356        O  0.89362512  0.67204394  0.70316142    -0.39200
O357        O  0.93287881  0.63484928  0.72913177    -0.36900
O358        O  0.79226643  0.49156629  0.68784589    -0.37800
O359        O  0.73368448  0.49977534  0.71685350    -0.34000
O360        O  0.86569790  0.55978194  0.91536176    -0.35400
O361        O  0.93310047  0.58774997  0.87595428    -0.39700
C362        C  0.66319395  0.17338446  0.80862807    -0.13400
C363        C  0.65833263  0.15750501  0.76480903     0.17000
C364        C  0.67861154  0.19410803  0.73086889     0.03300
C365        C  0.70104027  0.24522180  0.74100100    -0.11900
C366        C  0.70672406  0.26138813  0.78474349    -0.02900
C367        C  0.68750899  0.22481207  0.81888757     0.02500
C368        C  0.62475722  0.10337722  0.75439592     0.09400
N369        N  0.67664099  0.17969890  0.68596908     0.65700
H370        H  0.71359054  0.27261240  0.71433211     0.18600
N371        N  0.68984145  0.23892501  0.86376274     0.76200
H372        H  0.64637653  0.14567619  0.83493059     0.10200
C373        C  0.63240005  0.06501863  0.77209059     0.03900
C374        C  0.59589518  0.01424731  0.76627219    -0.04900
C375        C  0.55174150  0.00100536  0.74282266    -0.23200
C376        C  0.54568925  0.03928338  0.72263921     0.13100
C377        C  0.58188751  0.08984046  0.72869800    -0.12400
N378        N  0.67666998  0.07703371  0.79648531     0.64800
H379        H  0.60087955  0.98517611  0.78204440     0.12600
N380        N  0.50185253  0.02728645  0.69740022     0.61400
H381        H  0.57542506  0.11876261  0.71473543     0.08800
O382        O  0.65012665  0.22991749  0.88273833    -0.40000
O383        O  0.72717032  0.24692242  0.88691164    -0.39200
O384        O  0.66017739  0.19683133  0.65625353    -0.39200
O385        O  0.69410690  0.15208864  0.67558801    -0.36900
O386        O  0.46742403  0.03195464  0.71424839    -0.37800
O387        O  0.50172988  0.02122316  0.65641470    -0.34000
O388        O  0.67449579  0.07164188  0.83783855    -0.35400
O389        O  0.71444879  0.08229450  0.77641467    -0.39700
C390        C  0.21455542  0.89589530  0.77939534    -0.13400
C391        C  0.22677902  0.86120214  0.79761335     0.17000
C392        C  0.19055591  0.81943644  0.82199505     0.03300
C393        C  0.14357660  0.81398475  0.82879325    -0.11900
C394        C  0.13169753  0.84898652  0.81087610    -0.02900
C395        C  0.16710216  0.88951762  0.78504190     0.02500
C396        C  0.27815619  0.87066447  0.79242399     0.09400
N397        N  0.20092758  0.78237117  0.84001579     0.65700
H398        H  0.11659812  0.78287795  0.84898673     0.18600
N399        N  0.15509557  0.92408918  0.76404320     0.76200
H400        H  0.24215536  0.92845956  0.76103214     0.10200
C401        C  0.30063745  0.88091128  0.75054475     0.03900
C402        C  0.34972818  0.89165080  0.74684510    -0.04900
C403        C  0.37664006  0.89102011  0.78396698    -0.23200
C404        C  0.35496880  0.88151903  0.82587694     0.13100
C405        C  0.30604743  0.87214587  0.82995587    -0.12400
N406        N  0.27346883  0.87827419  0.71125585     0.64800
H407        H  0.36636606  0.89832898  0.71440755     0.12600
N408        N  0.38173562  0.88035820  0.86413108     0.61400
H409        H  0.28975229  0.86584012  0.86245204     0.08800
O410        O  0.17695014  0.96937478  0.77590685    -0.40000
O411        O  0.12963784  0.91164548  0.72894860    -0.39200
O412        O  0.20088096  0.77610051  0.88121741    -0.39200
O413        O  0.20285062  0.75123257  0.81489106    -0.36900
O414        O  0.40345075  0.91855599  0.88821279    -0.37800
O415        O  0.37675150  0.83906430  0.87766481    -0.34000
O416        O  0.28724594  0.91737724  0.68785243    -0.35400
O417        O  0.24285939  0.83586667  0.69561406    -0.39700
C418        C  0.94054127  0.25817220  0.83157707    -0.13400
C419        C  0.89065421  0.24137007  0.84258491     0.17000
C420        C  0.86248103  0.19330399  0.86252123     0.03300
C421        C  0.88378964  0.16272473  0.86861159    -0.11900
C422        C  0.93257568  0.17819688  0.85444473    -0.02900
C423        C  0.96186472  0.22753551  0.83747334     0.02500
C424        C  0.86678902  0.27154492  0.82932928     0.09400
N425        N  0.81080733  0.17315078  0.87266876     0.65700
H426        H  0.86020637  0.12425087  0.88107008     0.18600
N427        N  0.01201231  0.24556434  0.82367307     0.76200
H428        H  0.96353376  0.29618781  0.81599582     0.10200
C429        C  0.85170208  0.29463000  0.86030361     0.03900
C430        C  0.82605294  0.31929830  0.84632645    -0.04900
C431        C  0.81454794  0.32172923  0.80165889    -0.23200
C432        C  0.82926276  0.29794150  0.77025123     0.13100
C433        C  0.85562237  0.27382053  0.78471970    -0.12400
N434        N  0.86241753  0.29362560  0.90610792     0.64800
H435        H  0.81442939  0.33641790  0.87080458     0.12600
N436        N  0.81691798  0.29620742  0.72416962     0.61400
H437        H  0.86670746  0.25546837  0.76105834     0.08800
O438        O  0.04747614  0.26882166  0.85058855    -0.40000
O439        O  0.02142118  0.24667427  0.78323494    -0.39200
O440        O  0.77973298  0.16451991  0.84199275    -0.39200
O441        O  0.79518212  0.15687907  0.91106207    -0.36900
O442        O  0.80480696  0.32632690  0.70755964    -0.37800
O443        O  0.81819408  0.26432012  0.69949713    -0.34000
O444        O  0.90478141  0.32559698  0.92092782    -0.35400
O445        O  0.82722573  0.26790522  0.93261767    -0.39700
C446        C  0.57762049  0.49976341  0.78793853    -0.13400
C447        C  0.62615813  0.51122557  0.77654283     0.17000
C448        C  0.65783038  0.55773635  0.75532769     0.03300
C449        C  0.64158825  0.59198722  0.74734288    -0.11900
C450        C  0.59481743  0.58269555  0.76173538    -0.02900
C451        C  0.56188442  0.53521895  0.78102838     0.02500
C452        C  0.64348324  0.47459135  0.78571386     0.09400
N453        N  0.70775524  0.57231580  0.74334026     0.65700
H454        H  0.66709319  0.62756925  0.73138743     0.18600
N455        N  0.51336646  0.52319379  0.79538160     0.76200
H456        H  0.55244463  0.46383073  0.80347173     0.10200
C457        C  0.67628000  0.48150310  0.82101527     0.03900
C458        C  0.70061786  0.45342823  0.82344470    -0.04900
C459        C  0.69331858  0.41829826  0.79101336    -0.23200
C460        C  0.65717449  0.40844815  0.75753158     0.13100
C461        C  0.63238322  0.43631790  0.75557892    -0.12400
N462        N  0.68527394  0.51706915  0.85460749     0.64800
H463        H  0.72623838  0.45983184  0.85047216     0.12600
N464        N  0.64920592  0.37456322  0.72252050     0.61400
H465        H  0.60739647  0.43091264  0.72822626     0.08800
O466        O  0.47560178  0.49472774  0.77238344    -0.40000
O467        O  0.50748702  0.53302628  0.83422726    -0.39200
O468        O  0.71998164  0.58115763  0.70327342    -0.39200
O469        O  0.74151673  0.59143769  0.77234081    -0.36900
O470        O  0.68569731  0.38061211  0.69978861    -0.37800
O471        O  0.60529875  0.34415257  0.70969004    -0.34000
O472        O  0.65102053  0.50816022  0.88155135    -0.35400
O473        O  0.72920683  0.55229817  0.86211078    -0.39700
C474        C  0.83924153  0.92818203  0.76146021    -0.13400
C475        C  0.79115568  0.91684078  0.77362258     0.17000
C476        C  0.78439813  0.95390712  0.79330519     0.03300
C477        C  0.82579880  0.00047678  0.80323767    -0.11900
C478        C  0.87456429  0.01131725  0.79368547    -0.02900
C479        C  0.88099551  0.97517068  0.77105352     0.02500
C480        C  0.74908839  0.86471366  0.77065327     0.09400
N481        N  0.73571198  0.94378215  0.80535506     0.65700
H482        H  0.81970968  0.02703635  0.82111659     0.18600
N483        N  0.92954963  0.98508906  0.75858429     0.76200
H484        H  0.84452466  0.89980107  0.74592467     0.10200
C485        C  0.72884619  0.84225617  0.72989107     0.03900
C486        C  0.68738912  0.79355039  0.72898619    -0.04900
C487        C  0.66631635  0.76657871  0.76825948    -0.23200
C488        C  0.68785178  0.78826549  0.80889286     0.13100
C489        C  0.72882851  0.83722228  0.80983442    -0.12400
N490        N  0.74894304  0.86900941  0.68940197     0.64800
H491        H  0.67117023  0.77681556  0.69751958     0.12600
N492        N  0.66765632  0.76155835  0.84934929     0.61400
H493        H  0.74485580  0.85404194  0.84131383     0.08800
O494        O  0.95292979  0.01681128  0.72833819    -0.40000
O495        O  0.94535555  0.95670332  0.77251240    -0.39200
O496        O  0.72209132  0.93407710  0.84503806    -0.39200
O497        O  0.71004176  0.95284076  0.77810223    -0.36900
O498        O  0.64009612  0.77153822  0.87214789    -0.37800
O499        O  0.68426253  0.73489085  0.86582644    -0.34000
O500        O  0.77484846  0.85774843  0.66561110    -0.35400
O501        O  0.73395627  0.89751701  0.67407970    -0.39700
C502        C  0.89594074  0.14380479  0.50390589    -0.13400
C503        C  0.92193102  0.14378009  0.46625113     0.17000
C504        C  0.91947897  0.16972675  0.42796663     0.03300
C505        C  0.89487873  0.19735867  0.42914027    -0.11900
C506        C  0.87378898  0.20154095  0.46808889    -0.02900
C507        C  0.87307549  0.17319234  0.50542327     0.02500
C508        C  0.95148060  0.11719784  0.46744791     0.09400
N509        N  0.94469286  0.17169570  0.38831502     0.65700
H510        H  0.89650663  0.21963728  0.40042683     0.18600
N511        N  0.85094445  0.17545707  0.54564142     0.76200
H512        H  0.89454369  0.12210232  0.53288900     0.10200
C513        C  0.98288033  0.12123161  0.50338817     0.03900
C514        C  0.01035239  0.09640032  0.50256884    -0.04900
C515        C  0.01041355  0.07023346  0.46530999    -0.23200
C516        C  0.98018162  0.06720652  0.42838763     0.13100
C517        C  0.94907150  0.08807307  0.43151771    -0.12400
N518        N  0.98935124  0.15232988  0.54012789     0.64800
H519        H  0.03348546  0.09919911  0.53071246     0.12600
N520        N  0.98236773  0.04647469  0.38666039     0.61400
H521        H  0.92340531  0.08255079  0.40483653     0.08800
O522        O  0.80580117  0.14341652  0.55327343    -0.40000
O523        O  0.87854515  0.20208896  0.57668058    -0.39200
O524        O  0.91955183  0.15373269  0.35355072    -0.39200
O525        O  0.99147997  0.19992427  0.38592657    -0.36900
O526        O  0.00743559  0.02496407  0.38208864    -0.37800
O527        O  0.96203155  0.05302545  0.35281917    -0.34000
O528        O  0.97664948  0.13282406  0.57811205    -0.35400
O529        O  0.01553002  0.19953163  0.53592757    -0.39700
C530        C  0.24058405  0.89234892  0.51244598    -0.13400
C531        C  0.19180324  0.88053443  0.52374391     0.17000
C532        C  0.15993012  0.83318641  0.54385233     0.03300
C533        C  0.17707306  0.79935166  0.55159539    -0.11900
C534        C  0.22378368  0.80885996  0.53611119    -0.02900
C535        C  0.25650946  0.85695480  0.51789877     0.02500
C536        C  0.17344029  0.91585357  0.51087605     0.09400
N537        N  0.10835417  0.81634005  0.55218521     0.65700
H538        H  0.15162356  0.76318929  0.56663512     0.18600
N539        N  0.30454589  0.86932358  0.50185507     0.76200
H540        H  0.26574843  0.92851733  0.49725977     0.10200
C541        C  0.14753819  0.92966491  0.54035918     0.03900
C542        C  0.12438726  0.95615737  0.52452600    -0.04900
C543        C  0.12801841  0.97165077  0.48019353    -0.23200
C544        C  0.15731923  0.96134889  0.45158407     0.13100
C545        C  0.17882165  0.93308046  0.46696663    -0.12400
N546        N  0.14548144  0.91834928  0.58657164     0.64800
H547        H  0.10377988  0.96553837  0.54730034     0.12600
N548        N  0.16635422  0.97923726  0.40704683     0.61400
H549        H  0.19916872  0.92364816  0.44395627     0.08800
O550        O  0.34311624  0.89803424  0.52388720    -0.40000
O551        O  0.30901577  0.86011174  0.46240817    -0.39200
O552        O  0.08040338  0.81488975  0.52091520    -0.39200
O553        O  0.08887947  0.79450706  0.58822565    -0.36900
O554        O  0.20727748  0.01850237  0.39838055    -0.37800
O555        O  0.14483989  0.94798388  0.37673050    -0.34000
O556        O  0.18539019  0.93132930  0.60778256    -0.35400
O557        O  0.10508177  0.90235163  0.60733832    -0.39700
C558        C  0.07209644  0.55886881  0.49387848    -0.13400
C559        C  0.06464923  0.52819479  0.53114714     0.17000
C560        C  0.09885543  0.54647661  0.56621383     0.03300
C561        C  0.14083655  0.59451136  0.56314440    -0.11900
C562        C  0.14975683  0.62477305  0.52517836    -0.02900
C563        C  0.11443292  0.60704130  0.49058216     0.02500
C564        C  0.02438081  0.47528420  0.53038364     0.09400
N565        N  0.09211837  0.51604274  0.60452062     0.65700
H566        H  0.16699994  0.60813090  0.59051161     0.18600
N567        N  0.12249352  0.63605069  0.45104110     0.76200
H568        H  0.04597071  0.54448211  0.46652730     0.10200
C569        C  0.97566766  0.46053294  0.54399098     0.03900
C570        C  0.93671775  0.41177102  0.53543648    -0.04900
C571        C  0.94574190  0.37758352  0.51308252    -0.23200
C572        C  0.99536576  0.39163385  0.50217375     0.13100
C573        C  0.03420665  0.44020151  0.51123811    -0.12400
N574        N  0.96487992  0.49550589  0.56417433     0.64800
H575        H  0.89884094  0.40141056  0.54406922     0.12600
N576        N  0.00626680  0.35918257  0.47758834     0.61400
H577        H  0.07178901  0.45167480  0.50060330     0.08800
O578        O  0.09453780  0.65385604  0.44199395    -0.40000
O579        O  0.15083847  0.63579858  0.42172418    -0.39200
O580        O  0.11424042  0.49112794  0.60745228    -0.39200
O581        O  0.07105668  0.52051646  0.63799143    -0.36900
O582        O  0.99992063  0.35648402  0.43637335    -0.37800
O583        O  0.02942915  0.33967661  0.49580530    -0.34000
O584        O  0.94483222  0.51560626  0.54175066    -0.35400
O585        O  0.96744906  0.49964093  0.60551730    -0.39700
C586        C  0.98899753  0.83381288  0.42728177    -0.13400
C587        C  0.96869187  0.80597568  0.46598412     0.17000
C588        C  0.97612091  0.83118331  0.50596079     0.03300
C589        C  0.00156925  0.88395028  0.50631318    -0.11900
C590        C  0.02025165  0.91219308  0.46713098    -0.02900
C591        C  0.01480452  0.88660139  0.42719719     0.02500
C592        C  0.93519181  0.75093920  0.46299519     0.09400
N593        N  0.95742252  0.80347276  0.54624943     0.65700
H594        H  0.00651607  0.90300385  0.53719519     0.18600
N595        N  0.03179989  0.91296526  0.38578311     0.76200
H596        H  0.98250309  0.81415535  0.39649075     0.10200
C597        C  0.88454390  0.73113282  0.45181545     0.03900
C598        C  0.85309799  0.67922401  0.44883055    -0.04900
C599        C  0.87073195  0.64587550  0.45771926    -0.23200
C600        C  0.92205598  0.66575075  0.46681281     0.13100
C601        C  0.95390842  0.71816753  0.46946794    -0.12400
N602        N  0.86416474  0.76327754  0.44453425     0.64800
H603        H  0.81395843  0.66469601  0.44099961     0.12600
N604        N  0.94196109  0.63338776  0.47491921     0.61400
H605        H  0.99315175  0.73330433  0.47711844     0.08800
O606        O  0.02327728  0.94784149  0.37570390    -0.40000
O607        O  0.04573523  0.89485806  0.35590474    -0.39200
O608        O  0.98234910  0.78740866  0.56683941    -0.39200
O609        O  0.91396515  0.79075287  0.55894719    -0.36900
O610        O  0.96235967  0.62376740  0.44386352    -0.37800
O611        O  0.94844983  0.62330933  0.51406256    -0.34000
O612        O  0.85236792  0.76947731  0.40596110    -0.35400
O613        O  0.84830970  0.77631557  0.47684552    -0.39700
C614        C  0.20068892  0.31092904  0.54176320    -0.13400
C615        C  0.20505623  0.29120246  0.50161794     0.17000
C616        C  0.24162571  0.32442493  0.47135839     0.03300
C617        C  0.27505796  0.37448471  0.48297220    -0.11900
C618        C  0.27386366  0.39286439  0.52478154    -0.02900
C619        C  0.23470555  0.36110534  0.55353796     0.02500
C620        C  0.17375435  0.23577105  0.49266775     0.09400
N621        N  0.24839323  0.30685507  0.43023176     0.65700
H622        H  0.30489808  0.39815862  0.46036353     0.18600
N623        N  0.23119407  0.37801540  0.59606947     0.76200
H624        H  0.17181669  0.28671542  0.56487886     0.10200
C625        C  0.17325028  0.19950732  0.52213117     0.03900
C626        C  0.14730512  0.14837796  0.51133486    -0.04900
C627        C  0.12132787  0.13134089  0.47123336    -0.23200
C628        C  0.11962326  0.16734610  0.44221353     0.13100
C629        C  0.14579516  0.21883013  0.45347235    -0.12400
N630        N  0.20017395  0.21406104  0.56283121     0.64800
H631        H  0.14770702  0.12146102  0.53464057     0.12600
N632        N  0.09216545  0.15312488  0.40140465     0.61400
H633        H  0.14499595  0.24618546  0.43102415     0.08800
O634        O  0.20493804  0.39826571  0.60107729    -0.40000
O635        O  0.24712360  0.36527352  0.62946260    -0.39200
O636        O  0.23627555  0.32024022  0.39485664    -0.39200
O637        O  0.27439914  0.28591766  0.42874039    -0.36900
O638        O  0.08943412  0.11777431  0.37907762    -0.37800
O639        O  0.07420235  0.17885533  0.38547066    -0.34000
O640        O  0.17665817  0.20661054  0.59838709    -0.35400
O641        O  0.24540249  0.22543027  0.56401477    -0.39700
C642        C  0.52145204  0.45968339  0.55736983    -0.13400
C643        C  0.55597748  0.49974690  0.53079555     0.17000
C644        C  0.54146477  0.53142524  0.50933457     0.03300
C645        C  0.49314251  0.52261758  0.51456050    -0.11900
C646        C  0.45874523  0.48323723  0.54166774    -0.02900
C647        C  0.47296302  0.45132487  0.56307457     0.02500
C648        C  0.60504109  0.50512306  0.52130864     0.09400
N649        N  0.57578875  0.57332612  0.48272404     0.65700
H650        H  0.48267496  0.54755733  0.49809993     0.18600
N651        N  0.43919397  0.41138970  0.59152931     0.76200
H652        H  0.53197759  0.43452854  0.57324533     0.10200
C653        C  0.64121903  0.51493724  0.55433948     0.03900
C654        C  0.68835044  0.52289127  0.54260411    -0.04900
C655        C  0.69949507  0.52093034  0.49836914    -0.23200
C656        C  0.66287517  0.51037600  0.46559092     0.13100
C657        C  0.61597676  0.50171344  0.47741049    -0.12400
N658        N  0.63112960  0.51829737  0.59952349     0.64800
H659        H  0.71631190  0.53088508  0.56789133     0.12600
N660        N  0.67362272  0.51068977  0.41985837     0.61400
H661        H  0.58823425  0.49364861  0.45187335     0.08800
O662        O  0.43972479  0.41901370  0.63225995    -0.40000
O663        O  0.41590657  0.36694337  0.57751633    -0.39200
O664        O  0.56877737  0.57302633  0.44166332    -0.39200
O665        O  0.60734380  0.61370959  0.50091474    -0.36900
O666        O  0.69812945  0.55208454  0.39939817    -0.37800
O667        O  0.65196870  0.47028925  0.39856158    -0.34000
O668        O  0.62211058  0.48247622  0.62581052    -0.35400
O669        O  0.64035379  0.56005995  0.61457045    -0.39700
C670        C  0.25467901  0.13487424  0.41475006    -0.13400
C671        C  0.28489627  0.13563851  0.44967460     0.17000
C672        C  0.26239262  0.11077197  0.48947170     0.03300
C673        C  0.21013369  0.08418862  0.49332740    -0.11900
C674        C  0.17936512  0.08121620  0.45765200    -0.02900
C675        C  0.20226337  0.10772549  0.41805269     0.02500
C676        C  0.33968659  0.15970440  0.44327518     0.09400
N677        N  0.29233092  0.11154144  0.52596562     0.65700
H678        H  0.19344033  0.06528974  0.52419466     0.18600
N679        N  0.17327834  0.10435347  0.37972332     0.76200
H680        H  0.27198583  0.15353049  0.38394748     0.10200
C681        C  0.36030380  0.13326689  0.42350968     0.03900
C682        C  0.41226282  0.15450812  0.42182863    -0.04900
C683        C  0.44452386  0.20208176  0.43958677    -0.23200
C684        C  0.42395276  0.22978676  0.45700664     0.13100
C685        C  0.37176572  0.20844160  0.45876169    -0.12400
N686        N  0.32887311  0.08367068  0.40716555     0.64800
H687        H  0.42754191  0.13267202  0.40854129     0.12600
N688        N  0.45542260  0.27800966  0.47584443     0.61400
H689        H  0.35620513  0.22916368  0.47377489     0.08800
O690        O  0.13921932  0.06192672  0.36670834    -0.40000
O691        O  0.18713053  0.14240886  0.35483397    -0.39200
O692        O  0.30970592  0.14761837  0.55249330    -0.39200
O693        O  0.30496085  0.07854747  0.52955647    -0.36900
O694        O  0.46822232  0.28102740  0.51579939    -0.37800
O695        O  0.46344064  0.31718410  0.45492792    -0.34000
O696        O  0.31912646  0.04608546  0.43140827    -0.35400
O697        O  0.31877841  0.07758395  0.36656807    -0.39700
C698        C  0.77889058  0.85312447  0.53460616    -0.13400
C699        C  0.81715405  0.90180741  0.54601106     0.17000
C700        C  0.80342123  0.93423188  0.56593983     0.03300
C701        C  0.75263238  0.91897859  0.57041181    -0.11900
C702        C  0.71458132  0.87308021  0.55331092    -0.02900
C703        C  0.72811439  0.83883990  0.53746613     0.02500
C704        C  0.86909146  0.92047257  0.52937668     0.09400
N705        N  0.83993678  0.98477302  0.57718444     0.65700
H706        H  0.74302303  0.94539445  0.58378222     0.18600
N707        N  0.69144097  0.79181967  0.51948520     0.76200
H708        H  0.78858083  0.82742838  0.51980018     0.10200
C709        C  0.91272649  0.94651044  0.55552674     0.03900
C710        C  0.96010865  0.96933132  0.53546902    -0.04900
C711        C  0.96553848  0.96469240  0.49010827    -0.23200
C712        C  0.92182432  0.93555299  0.46481261     0.13100
C713        C  0.87468912  0.91492858  0.48441063    -0.12400
N714        N  0.90975939  0.94847986  0.60242374     0.64800
H715        H  0.99326001  0.99023600  0.55562807     0.12600
N716        N  0.92355388  0.92544296  0.41941961     0.61400
H717        H  0.84181002  0.89474415  0.46378274     0.08800
O718        O  0.67930161  0.75154840  0.54052333    -0.40000
O719        O  0.67836157  0.78989117  0.47970364    -0.39200
O720        O  0.86552610  0.01588272  0.54722749    -0.39200
O721        O  0.83997402  0.00058719  0.61524281    -0.36900
O722        O  0.92124877  0.88459970  0.41009330    -0.37800
O723        O  0.90715334  0.94441242  0.39141095    -0.34000
O724        O  0.88808463  0.90806954  0.62469385    -0.35400
O725        O  0.93587587  0.98959839  0.62202299    -0.39700
C726        C  0.57401096  0.99474298  0.47809217    -0.13400
C727        C  0.59781297  0.03441774  0.50780150     0.17000
C728        C  0.62941222  0.03277234  0.54063395     0.03300
C729        C  0.63697677  0.99167314  0.54315122    -0.11900
C730        C  0.61293591  0.95173080  0.51355163    -0.02900
C731        C  0.58126003  0.95354198  0.48068491     0.02500
C732        C  0.58985250  0.07758924  0.50287569     0.09400
N733        N  0.65356615  0.07227506  0.57178366     0.65700
H734        H  0.66031842  0.99007792  0.56932067     0.18600
N735        N  0.55607833  0.91375828  0.44988607     0.76200
H736        H  0.54945382  0.99573309  0.45281329     0.10200
C737        C  0.60403989  0.10627937  0.46369815     0.03900
C738        C  0.59203712  0.14369616  0.45717702    -0.04900
C739        C  0.56711422  0.15457858  0.48965595    -0.23200
C740        C  0.55299208  0.12612650  0.52913701     0.13100
C741        C  0.56450300  0.08774851  0.53552346    -0.12400
N742        N  0.63101812  0.09797150  0.43026213     0.64800
H743        H  0.60251279  0.16465594  0.42626663     0.12600
N744        N  0.52753512  0.13597196  0.56288714     0.61400
H745        H  0.55288654  0.06527039  0.56557365     0.08800
O746        O  0.50930248  0.88528758  0.45232023    -0.40000
O747        O  0.57855810  0.91362717  0.41560467    -0.39200
O748        O  0.63690253  0.06588183  0.61049340    -0.39200
O749        O  0.69483235  0.11082327  0.56234060    -0.36900
O750        O  0.48057737  0.10951708  0.56561183    -0.37800
O751        O  0.55219773  0.16393278  0.59445108    -0.34000
O752        O  0.60980839  0.07919597  0.39413633    -0.35400
O753        O  0.67781479  0.11762866  0.43366380    -0.39700
C754        C  0.71315582  0.86336293  0.10231125    -0.13400
C755        C  0.67591174  0.81437294  0.09060265     0.17000
C756        C  0.69045992  0.78414479  0.06788003     0.03300
C757        C  0.74095952  0.80198621  0.05941751    -0.11900
C758        C  0.77847329  0.84915013  0.07424430    -0.02900
C759        C  0.76413460  0.88079135  0.09449676     0.02500
C760        C  0.62204154  0.79477130  0.10134408     0.09400
N761        N  0.65478535  0.73363957  0.05598151     0.65700
H762        H  0.75126839  0.77716607  0.04376589     0.18600
N763        N  0.80090958  0.92944138  0.10950379     0.76200
H764        H  0.70276985  0.88787608  0.11833551     0.10200
C765        C  0.60555590  0.79536544  0.14438301     0.03900
C766        C  0.55410232  0.77144978  0.15348159    -0.04900
C767        C  0.51809983  0.74656760  0.12042942    -0.23200
C768        C  0.53472445  0.74785832  0.07687186     0.13100
C769        C  0.58609924  0.77243373  0.06798341    -0.12400
N770        N  0.64041421  0.81802558  0.17968486     0.64800
H771        H  0.54225115  0.77064106  0.18701058     0.12600
N772        N  0.50043288  0.72424907  0.04110361     0.61400
H773        H  0.59820680  0.77371707  0.03444286     0.08800
O774        O  0.81379103  0.96747359  0.08487691    -0.40000
O775        O  0.81419172  0.93537124  0.14943063    -0.39200
O776        O  0.64680338  0.72198447  0.01586580    -0.39200
O777        O  0.63728410  0.69940616  0.08520459    -0.36900
O778        O  0.46420288  0.73148001  0.03540270    -0.37800
O779        O  0.51099180  0.70339656  0.01104314    -0.34000
O780        O  0.64650644  0.85796635  0.19640802    -0.35400
O781        O  0.65873746  0.79410696  0.19863543    -0.39700
C782        C  0.14607471  0.59374789  0.24530193    -0.13400
C783        C  0.15681472  0.56315390  0.21957599     0.17000
C784        C  0.11713490  0.51543024  0.20717751     0.03300
C785        C  0.06733413  0.50129932  0.21713197    -0.11900
C786        C  0.05622525  0.53363539  0.24014513    -0.02900
C787        C  0.09659615  0.57933153  0.25610442     0.02500
C788        C  0.20786582  0.58535312  0.20013042     0.09400
N789        N  0.12687383  0.48158626  0.18349463     0.65700
H790        H  0.03711184  0.46615844  0.20469043     0.18600
N791        N  0.08774319  0.61261569  0.28170061     0.76200
H792        H  0.17623409  0.63021926  0.25539247     0.10200
C793        C  0.21639551  0.60359056  0.15627802     0.03900
C794        C  0.26483429  0.62736974  0.13867838    -0.04900
C795        C  0.30618233  0.63566843  0.16449697    -0.23200
C796        C  0.29797035  0.61954108  0.20910805     0.13100
C797        C  0.24904852  0.59364804  0.22623872    -0.12400
N798        N  0.17661865  0.60175980  0.13044712     0.64800
H799        H  0.27013403  0.64047081  0.10470911     0.12600
N800        N  0.33943978  0.63263095  0.23808262     0.61400
H801        H  0.24340330  0.58195718  0.26064944     0.08800
O802        O  0.10778610  0.65852084  0.27085069    -0.40000
O803        O  0.06623111  0.59792141  0.31847131    -0.39200
O804        O  0.14980817  0.46218359  0.20234098    -0.39200
O805        O  0.10617586  0.46520613  0.14666323    -0.36900
O806        O  0.36911872  0.67821630  0.24697548    -0.37800
O807        O  0.34386264  0.59868756  0.25792581    -0.34000
O808        O  0.16218695  0.63274591  0.13728291    -0.35400
O809        O  0.15713479  0.57053435  0.09975776    -0.39700
C810        C  0.92263722  0.72692714  0.10116420    -0.13400
C811        C  0.90916219  0.70826718  0.14423510     0.17000
C812        C  0.88708693  0.72824552  0.17160413     0.03300
C813        C  0.87917600  0.76656848  0.15550817    -0.11900
C814        C  0.89249176  0.78491654  0.11232342    -0.02900
C815        C  0.91366984  0.76425416  0.08481007     0.02500
C816        C  0.92056177  0.66961546  0.16046522     0.09400
N817        N  0.87195680  0.70956022  0.21550880     0.65700
H818        H  0.86278236  0.78219398  0.17680668     0.18600
N819        N  0.92397208  0.77914029  0.03953928     0.76200
H820        H  0.94007834  0.71230043  0.07998830     0.10200
C821        C  0.90361211  0.62413049  0.13788825     0.03900
C822        C  0.91530930  0.58860677  0.15422404    -0.04900
C823        C  0.94360217  0.59755155  0.19284281    -0.23200
C824        C  0.96191266  0.64359599  0.21474406     0.13100
C825        C  0.95079490  0.67946197  0.19800014    -0.12400
N826        N  0.87337225  0.61287454  0.09908403     0.64800
H827        H  0.90120787  0.55325316  0.13728595     0.12600
N828        N  0.98948794  0.65338410  0.25511446     0.61400
H829        H  0.96504333  0.71484480  0.21488321     0.08800
O830        O  0.88858241  0.76139774  0.01195022    -0.40000
O831        O  0.96855797  0.80274012  0.02616098    -0.39200
O832        O  0.89432802  0.73753649  0.24775347    -0.39200
O833        O  0.83138936  0.66892478  0.22176513    -0.36900
O834        O  0.03137305  0.69311369  0.25881450    -0.37800
O835        O  0.96848631  0.62712370  0.28903000    -0.34000
O836        O  0.89070582  0.61024223  0.06249685    -0.35400
O837        O  0.82726280  0.59723386  0.10252805    -0.39700
C838        C  0.54388095  0.97843648  0.21905837    -0.13400
C839        C  0.55202543  0.95757143  0.18125528     0.17000
C840        C  0.59273261  0.98950474  0.15385131     0.03300
C841        C  0.62478733  0.03978132  0.16517825    -0.11900
C842        C  0.61970511  0.05941086  0.20499750    -0.02900
C843        C  0.57757823  0.02857421  0.23137988     0.02500
C844        C  0.51932170  0.90258140  0.17099357     0.09400
N845        N  0.60503667  0.97036555  0.11647152     0.65700
H846        H  0.65654362  0.06274775  0.14410090     0.18600
N847        N  0.57046491  0.04612306  0.27229269     0.76200
H848        H  0.51224356  0.95513301  0.24009377     0.10200
C849        C  0.50870229  0.86421062  0.20270677     0.03900
C850        C  0.48052524  0.81326883  0.19073216    -0.04900
C851        C  0.46450259  0.79900637  0.14707948    -0.23200
C852        C  0.47443817  0.83732351  0.11561485     0.13100
C853        C  0.50031162  0.88809344  0.12807702    -0.12400
N854        N  0.52826072  0.87619162  0.24661391     0.64800
H855        H  0.47278969  0.78438880  0.21544125     0.12600
N856        N  0.46083884  0.82615469  0.07042339     0.61400
H857        H  0.50677414  0.91663332  0.10343533     0.08800
O858        O  0.58398554  0.03412052  0.30761502    -0.40000
O859        O  0.54206796  0.06436521  0.27387548    -0.39200
O860        O  0.60330037  0.98647523  0.07834233    -0.39200
O861        O  0.62489610  0.94354917  0.12208452    -0.36900
O862        O  0.49446581  0.83303605  0.04352608    -0.37800
O863        O  0.42316186  0.82752845  0.05605776    -0.34000
O864        O  0.49939841  0.85727054  0.27917126    -0.35400
O865        O  0.57480735  0.90263120  0.25298215    -0.34300
C866        C  0.27315181  0.39526301  0.08860944    -0.13400
C867        C  0.27890381  0.41672647  0.13039919     0.17000
C868        C  0.25426831  0.38449324  0.16668248     0.03300
C869        C  0.22385326  0.33263882  0.16020494    -0.11900
C870        C  0.21369157  0.31196587  0.11775867    -0.02900
C871        C  0.24038302  0.34364577  0.08187312     0.02500
C872        C  0.30672613  0.47281514  0.13430964     0.09400
N873        N  0.25501902  0.40398955  0.20932686     0.65700
H874        H  0.20402540  0.30887501  0.18826176     0.18600
N875        N  0.23131546  0.32523890  0.03791469     0.76200
H876        H  0.29206122  0.41929774  0.06042772     0.10200
C877        C  0.34415514  0.49872980  0.16641413     0.03900
C878        C  0.36639377  0.55119879  0.17002291    -0.04900
C879        C  0.35596830  0.57959588  0.13942641    -0.23200
C880        C  0.31871681  0.55343178  0.10684965     0.13100
C881        C  0.29391363  0.50075075  0.10563406    -0.12400
N882        N  0.36188408  0.47282229  0.19404514     0.64800
H883        H  0.39401035  0.57019195  0.19560093     0.12600
N884        N  0.30669963  0.57930099  0.07348101     0.61400
H885        H  0.26507340  0.48136174  0.08100805     0.08800
O886        O  0.26230509  0.31625289  0.01970971    -0.40000
O887        O  0.19826974  0.32738535  0.01479368    -0.39200
O888        O  0.23811195  0.43330890  0.21404272    -0.39200
O889        O  0.26405170  0.38519794  0.24304374    -0.36900
O890        O  0.34079750  0.61176066  0.04917312    -0.37800
O891        O  0.26172456  0.56202408  0.06185768    -0.34000
O892        O  0.37699129  0.44575728  0.17711399    -0.35400
O893        O  0.36768980  0.48138565  0.23480523    -0.39700
C894        C  0.94952878  0.17768817  0.13704489    -0.13400
C895        C  0.94529890  0.18282028  0.18224149     0.17000
C896        C  0.98500769  0.19160547  0.21081555     0.03300
C897        C  0.02943635  0.19805056  0.19340407    -0.11900
C898        C  0.03419096  0.19489988  0.14797133    -0.02900
C899        C  0.99358746  0.18377333  0.11969388     0.02500
C900        C  0.89903827  0.17937406  0.19803476     0.09400
N901        N  0.98086748  0.19422366  0.25732239     0.65700
H902        H  0.06034144  0.20568663  0.21529178     0.18600
N903        N  0.99729434  0.18046093  0.07312608     0.76200
H904        H  0.91866738  0.16981577  0.11500691     0.10200
C905        C  0.88459114  0.21333931  0.18189824     0.03900
C906        C  0.83755033  0.20563356  0.19192798    -0.04900
C907        C  0.80440288  0.16473518  0.21841980    -0.23200
C908        C  0.81926563  0.13121189  0.23544008     0.13100
C909        C  0.86647397  0.13875754  0.22500782    -0.12400
N910        N  0.91724343  0.25554350  0.15478187     0.64800
H911        H  0.82656922  0.23148183  0.17834271     0.12600
N912        N  0.78723926  0.08983576  0.26355972     0.61400
H913        H  0.87728961  0.11223361  0.23711055     0.08800
O914        O  0.97449740  0.13811396  0.05491141    -0.40000
O915        O  0.01702417  0.22002284  0.04966196    -0.39200
O916        O  0.97990910  0.16019621  0.28185354    -0.39200
O917        O  0.98862054  0.23475379  0.27406813    -0.36900
O918        O  0.76712674  0.04558496  0.24921927    -0.37800
O919        O  0.78760940  0.09657831  0.30444549    -0.34000
O920        O  0.90723069  0.25622183  0.11443761    -0.35400
O921        O  0.95114686  0.29508623  0.17241603    -0.39700
C922        C  0.58295859  0.55963818  0.14582440    -0.13400
C923        C  0.55015154  0.56007388  0.17722249     0.17000
C924        C  0.54159275  0.53079809  0.21624465     0.03300
C925        C  0.56326415  0.50028738  0.22177769    -0.11900
C926        C  0.59335869  0.49757002  0.18910975    -0.02900
C927        C  0.60417669  0.52872316  0.15132684     0.02500
C928        C  0.52264804  0.58791915  0.16658594     0.09400
N929        N  0.50670023  0.52695230  0.24846874     0.65700
H930        H  0.55326930  0.47548672  0.25035981     0.18600
N931        N  0.63470989  0.52746873  0.11714680     0.76200
H932        H  0.59061797  0.58201470  0.11587450     0.10200
C933        C  0.52419133  0.62525663  0.19404470     0.03900
C934        C  0.49690399  0.64913104  0.18252523    -0.04900
C935        C  0.46865284  0.63826203  0.14336742    -0.23200
C936        C  0.46717760  0.60092375  0.11547262     0.13100
C937        C  0.49396903  0.57643911  0.12763644    -0.12400
N938        N  0.55452573  0.64076805  0.23301637     0.64800
H939        H  0.49774282  0.67675968  0.20462755     0.12600
N940        N  0.43813966  0.58636896  0.07546803     0.61400
H941        H  0.49239690  0.54780995  0.10637966     0.08800
O942        O  0.67958226  0.56247280  0.11389611    -0.40000
O943        O  0.61474916  0.49690686  0.08603115    -0.39200
O944        O  0.46119786  0.49470256  0.24316399    -0.39200
O945        O  0.52225454  0.54326297  0.28665497    -0.36900
O946        O  0.43158715  0.61770070  0.05345782    -0.37800
O947        O  0.42126730  0.54270082  0.06050750    -0.34000
O948        O  0.60077767  0.65670859  0.23042974    -0.35400
O949        O  0.53691867  0.64602445  0.26846191    -0.39700
C950        C  0.30811375  0.77064966  0.08952705    -0.13400
C951        C  0.30605320  0.79838394  0.12444945     0.17000
C952        C  0.32667045  0.79639151  0.16551646     0.03300
C953        C  0.35073968  0.76829879  0.17060180    -0.11900
C954        C  0.35490858  0.74222120  0.13503404    -0.02900
C955        C  0.33230547  0.74260783  0.09402168     0.02500
C956        C  0.28582194  0.83234119  0.11610872     0.09400
N957        N  0.32465074  0.82393840  0.20192812     0.65700
H958        H  0.36727745  0.76775995  0.20213492     0.18600
N959        N  0.33472151  0.71640104  0.05619074     0.76200
H960        H  0.29243802  0.77259370  0.05792567     0.10200
C961        C  0.31535378  0.87916161  0.09492743     0.03900
C962        C  0.29639681  0.91140677  0.08784769    -0.04900
C963        C  0.24808874  0.89817825  0.10173657    -0.23200
C964        C  0.21732142  0.84988663  0.12041646     0.13100
C965        C  0.23650096  0.81747139  0.12773154    -0.12400
N966        N  0.36544545  0.89524702  0.08191477     0.64800
H967        H  0.32049770  0.94818999  0.07313940     0.12600
N968        N  0.16735221  0.83394350  0.13349055     0.61400
H969        H  0.21307711  0.78086064  0.14295496     0.08800
O970        O  0.30148440  0.70209188  0.02659299    -0.40000
O971        O  0.37217138  0.71160316  0.04991312    -0.39200
O972        O  0.29225120  0.80148558  0.23148458    -0.39200
O973        O  0.35933151  0.86863454  0.20775061    -0.36900
O974        O  0.13184431  0.80941997  0.10692505    -0.37800
O975        O  0.15792265  0.83497123  0.17361467    -0.34000
O976        O  0.37507116  0.89456491  0.04178101    -0.35400
O977        O  0.40085784  0.91803279  0.10897857    -0.39700
C978        C  0.34869513  0.16111731  0.15688832    -0.13400
C979        C  0.39346178  0.17351522  0.13548356     0.17000
C980        C  0.39596592  0.13702420  0.11008089     0.03300
C981        C  0.35384246  0.08913008  0.10647126    -0.11900
C982        C  0.30938287  0.07637028  0.12857845    -0.02900
C983        C  0.30682104  0.11287531  0.15381922     0.02500
C984        C  0.43802590  0.22320951  0.14351599     0.09400
N985        N  0.44143973  0.14715783  0.08945400     0.65700
H986        H  0.35592537  0.06153962  0.08634120     0.18600
N987        N  0.26273587  0.10090657  0.17784139     0.76200
H988        H  0.34669622  0.18880268  0.17693905     0.10200
C989        C  0.46350307  0.25864727  0.10937655     0.03900
C990        C  0.50609485  0.30487582  0.11942500    -0.04900
C991        C  0.52280581  0.31645672  0.16304959    -0.23200
C992        C  0.49661561  0.28132359  0.19703938     0.13100
C993        C  0.45506999  0.23498972  0.18697048    -0.12400
N994        N  0.44545161  0.24917726  0.06494752     0.64800
H995        H  0.52567912  0.33214741  0.09332675     0.12600
N996        N  0.51046160  0.29322204  0.24221111     0.61400
H997        H  0.43546935  0.20819624  0.21340521     0.08800
O998        O  0.23698966  0.12055169  0.16645518    -0.40000
O999        O  0.25481751  0.07841341  0.21460643    -0.39200
O1000       O  0.47789486  0.15315870  0.11297734    -0.39200
O1001       O  0.44189189  0.14048394  0.04861607    -0.36900
O1002       O  0.49572204  0.31861423  0.26267553    -0.37800
O1003       O  0.52943760  0.27123281  0.26340692    -0.34000
O1004       O  0.40324410  0.24396087  0.05580433    -0.35400
O1005       O  0.47471266  0.25453118  0.03411308    -0.39700
loop_ 
_geom_bond_atom_site_label_1 
_geom_bond_atom_site_label_2 
_geom_bond_distance 
_geom_bond_site_symmetry_2 
_ccdc_geom_bond_type 
C1            C2   1.405       .  A
C1            C6   1.416       .  A
C1          C963   1.490       .  S
C2            C3   1.396   1_565  A
C2            H7   1.085       .  S
C3            C4   1.393       .  A
C3          C982   1.476       .  S
C4            C5   1.399   1_545  A
C4            H8   1.085       .  S
C5            C6   1.416       .  A
C5          C225   1.474       .  S
C6            H9   1.083       .  S
C10          C11   1.421       .  A
C10          C15   1.404       .  A
C10         C926   1.496       .  S
C11          C12   1.423       .  A
C11          H16   1.083       .  S
C12          C13   1.398       .  A
C12          C81   1.488       .  S
C13          C14   1.396       .  A
C13          H17   1.085       .  S
C14          C15   1.398       .  A
C14         C991   1.474       .  S
C15          H18   1.085       .  S
C19          C20   1.407       .  A
C19          C24   1.419       .  A
C19         C870   1.497       .  S
C20          C21   1.393       .  A
C20          H25   1.084       .  S
C21          C22   1.388       .  A
C21         C898   1.465       .  S
C22          C23   1.393       .  A
C22          H26   1.085       .  S
C23          C24   1.416       .  A
C23         C224   1.470       .  S
C24          H27   1.082       .  S
C28          C29   1.409       .  A
C28          C33   1.423       .  A
C28         C842   1.503       .  S
C29          C30   1.395       .  A
C29          H34   1.083       .  S
C30          C31   1.393       .  A
C30         C907   1.476       .  S
C31          C32   1.395       .  A
C31          H35   1.086       .  S
C32          C33   1.421       .  A
C32          C82   1.479       .  S
C33          H36   1.082       .  S
C37          C38   1.423   1_455  A
C37          C42   1.406   1_455  A
C37         C786   1.500       .  S
C38          C39   1.423       .  A
C38          H43   1.083       .  S
C39          C40   1.395       .  A
C39          C76   1.483       .  S
C40          C41   1.393       .  A
C40          H44   1.085       .  S
C41          C42   1.396       .  A
C41         C823   1.470       .  S
C42          H45   1.084   1_655  S
C46          C47   1.407       .  A
C46          C51   1.418       .  A
C46         C758   1.491       .  S
C47          C48   1.395       .  A
C47          H52   1.084       .  S
C48          C49   1.391       .  A
C48         C814   1.473       .  S
C49          C50   1.396       .  A
C49          H53   1.085       .  S
C50          C51   1.416       .  A
C50         C219   1.474       .  S
C51          H54   1.083       .  S
C55          C56   1.420       .  A
C55          C60   1.421       .  A
C55         C954   1.493       .  S
C56          C57   1.426       .  A
C56         C795   1.508       .  S
C57          C58   1.435       .  A
C57         C879   1.507       .  S
C58          C59   1.432       .  A
C58         C935   1.517       .  S
C59          C60   1.425       .  A
C59         C767   1.503       .  S
C60         C851   1.508       .  S
O61          C77   1.274       .  A
O61         Zn67   2.044       .  S
C62         C133   1.485       .  S
C62          O78   1.273       .  A
C62          O75   1.275       .  A
O63          C76   1.285       .  A
O63         Cd70   2.127       .  S
O64          C82   1.271       .  A
O64         Cd73   2.065       .  S
O65          C79   1.275       .  A
O65         Cd69   2.111       .  S
O66          C77   1.274       .  A
O66         Cd69   2.037       .  S
Zn67         O78   1.994       .  S
Zn67         O80   2.014       .  S
Zn67         O72   1.964       .  S
O68          C79   1.275       .  A
O68         Cd73   2.043       .  S
Cd69         O71   2.076       .  S
Cd69         O72   2.016       .  S
Cd70         O74   2.132       .  S
Cd70         O83   2.126       .  S
Cd70         O72   1.996       .  S
O71          C81   1.273       .  A
O72         Cd73   2.006       .  S
Cd73         O75   2.105       .  S
O74          C81   1.286       .  A
C76          O80   1.271       .  A
C77         C113   1.472       .  S
C79          C97   1.484       .  S
C82          O83   1.286       .  A
C84          C85   1.421       .  A
C84          C89   1.409       .  A
C84         C702   1.501       .  S
C85          C86   1.420       .  A
C85          H90   1.082       .  S
C86          C87   1.403       .  A
C86         C245   1.491       .  S
C87          C88   1.391       .  A
C87          H91   1.083       .  S
C88          C89   1.395       .  A
C88         C730   1.477       .  S
C89          H92   1.084       .  S
C93          C94   1.409       .  A
C93          C98   1.419       .  A
C93         C683   1.485       .  S
C94          C95   1.396       .  A
C94          H99   1.084       .  S
C95          C96   1.392       .  A
C95         C739   1.479       .  S
C96          C97   1.399       .  A
C96         H100   1.086       .  S
C97          C98   1.413       .  A
C98         H101   1.083       .  S
C102        C103   1.409       .  A
C102        C107   1.430       .  A
C102        C618   1.500       .  S
C103        C104   1.391       .  A
C103        H108   1.084       .  S
C104        C105   1.388       .  A
C104        C646   1.476       .  S
C105        C106   1.404       .  A
C105        H109   1.084       .  S
C106        C107   1.425       .  A
C106        C228   1.504       .  S
C107        H110   1.082       .  S
C111        C112   1.416       .  A
C111        C116   1.409       .  A
C111        C599   1.486       .  S
C112        C113   1.411       .  A
C112        H117   1.083       .  S
C113        C114   1.398       .  A
C114        C115   1.388       .  A
C114        H118   1.086       .  S
C115        C116   1.392       .  A
C115        C655   1.472       .  S
C116        H119   1.084       .  S
C120        C121   1.411       .  A
C120        C125   1.424       .  A
C120        C534   1.506       .  S
C121        C122   1.394       .  A
C121        H126   1.083       .  S
C122        C123   1.393       .  A
C122        C562   1.480       .  S
C123        C124   1.403       .  A
C123        H127   1.084       .  S
C124        C125   1.422       .  A
C124        C243   1.496       .  S
C125        H128   1.082       .  S
C129        C130   1.404       .  A
C129        C134   1.417       .  A
C129        C506   1.483       .  S
C130        C131   1.396       .  A
C130        H135   1.084       .  S
C131        C132   1.394       .  A
C131        C571   1.479       .  S
C132        C133   1.402       .  A
C132        H136   1.084       .  S
C133        C134   1.413       .  A
C134        H137   1.083       .  S
C138        C139   1.420       .  A
C138        C143   1.424       .  A
C138        C590   1.495       .  S
C139        C140   1.423   1_565  A
C139        C711   1.507   1_455  S
C140        C141   1.428       .  A
C140        C515   1.496       .  S
C141        C142   1.431       .  A
C141        C627   1.512       .  S
C142        C143   1.428   1_545  A
C142        C674   1.502       .  S
C143        C543   1.507       .  S
C144        C145   1.417       .  A
C144        C149   1.411       .  A
C144        C450   1.497       .  S
C145        C146   1.415       .  A
C145        H150   1.082       .  S
C146        C147   1.398       .  A
C146        C248   1.471       .  S
C147        C148   1.392       .  A
C147        H151   1.086       .  S
C148        C149   1.394       .  A
C148        C487   1.473       .  S
C149        H152   1.084       .  S
C153        C154   1.404       .  A
C153        C158   1.419       .  A
C153        C422   1.495       .  S
C154        C155   1.399       .  A
C154        H159   1.084       .  S
C155        C156   1.398       .  A
C155        C478   1.488       .  S
C156        C157   1.407       .  A
C156        H160   1.082       .  S
C157        C158   1.421       .  A
C157        C220   1.494   1_655  S
C158        H161   1.083   1_655  S
C162        C163   1.413       .  A
C162        C167   1.403       .  A
C162        C375   1.481   1_565  S
C163        C164   1.412       .  A
C163        H168   1.083       .  S
C164        C165   1.394       .  A
C164        C247   1.469       .  S
C165        C166   1.392       .  A
C165        H169   1.086       .  S
C166        C167   1.394       .  A
C166        C403   1.460       .  S
C167        H170   1.084       .  S
C171        C172   1.406   1_655  A
C171        C176   1.424       .  A
C171        C338   1.499       .  S
C172        C173   1.390       .  A
C172        H177   1.085       .  S
C173        C174   1.389       .  A
C173        C394   1.471       .  S
C174        C175   1.403       .  A
C174        H178   1.084       .  S
C175        C176   1.422   1_455  A
C175        C205   1.492       .  S
C176        H179   1.082       .  S
C180        C181   1.425       .  A
C180        C185   1.405       .  A
C180        C282   1.490       .  S
C181        C182   1.423       .  A
C181        H186   1.083       .  S
C182        C183   1.404       .  A
C182        C222   1.498       .  S
C183        C184   1.386       .  A
C183        H187   1.084       .  S
C184        C185   1.387       .  A
C184        C310   1.465       .  S
C185        H188   1.085       .  S
C189        C190   1.413       .  A
C189        C194   1.409       .  A
C189        C254   1.487       .  S
C190        C191   1.410       .  A
C190        H195   1.083       .  S
C191        C192   1.394       .  A
C191        C242   1.471       .  S
C192        C193   1.395       .  A
C192        H196   1.086       .  S
C193        C194   1.398       .  A
C193        C319   1.478       .  S
C194        H197   1.083       .  S
C198        C199   1.425       .  A
C198        C203   1.420       .  A
C198        C366   1.499       .  S
C199        C200   1.431       .  A
C199        C291   1.508       .  S
C200        C201   1.435       .  A
C200        C459   1.510       .  S
C201        C202   1.432       .  A
C201        C347   1.510       .  S
C202        C203   1.429       .  A
C202        C263   1.505       .  S
C203        C431   1.511       .  S
O204        C220   1.279   1_655  A
O204       Zn210   2.026   1_645  S
C205        O221   1.278       .  A
C205        O218   1.279       .  A
O206        C219   1.277   1_455  A
O206       Cd213   2.073   1_565  S
O207        C225   1.274       .  A
O207       Cd216   2.084   1_564  S
O208        C222   1.276       .  A
O208       Cd212   2.047       .  S
O209        C220   1.278       .  A
O209       Cd212   2.113       .  S
Zn210       O221   2.071       .  S
Zn210       O223   2.039   1_455  S
Zn210       O215   1.968   1_565  S
O211        C222   1.278       .  A
O211       Cd216   2.122       .  S
Cd212       O214   2.073   1_556  S
Cd212       O215   2.007       .  S
Cd213       O217   2.072       .  S
Cd213       O226   2.078   1_545  S
Cd213       O215   1.993   1_554  S
O214        C224   1.272       .  A
O215       Cd216   2.018       .  S
Cd216       O218   2.057   1_545  S
O217        C224   1.276       .  A
C219        O223   1.275   1_554  A
C225        O226   1.276       .  A
O227        C243   1.280       .  A
O227       Zn233   2.019       .  S
C228        O244   1.280       .  A
C228        O241   1.279       .  A
O229        C242   1.275       .  A
O229       Cd236   2.062       .  S
O230        C248   1.272       .  A
O230       Cd239   2.074       .  S
O231        C245   1.278       .  A
O231       Cd235   2.058       .  S
O232        C243   1.278       .  A
O232       Cd235   2.114       .  S
Zn233       O244   2.098       .  S
Zn233       O246   2.033       .  S
Zn233       O238   1.960       .  S
O234        C245   1.276       .  A
O234       Cd239   2.102       .  S
Cd235       O237   2.078       .  S
Cd235       O238   2.009       .  S
Cd236       O240   2.067       .  S
Cd236       O249   2.079       .  S
Cd236       O238   1.995       .  S
O237        C247   1.274       .  A
O238       Cd239   1.996       .  S
Cd239       O241   2.055       .  S
O240        C247   1.274       .  A
C242        O246   1.275       .  A
C248        O249   1.275       .  A
C250        C251   1.402       .  A
C250        C255   1.406       .  A
C250        H260   1.084       .  S
C251        C252   1.405       .  A
C251        C256   1.479   1_455  S
C252        C253   1.396       .  A
C252        N257   1.427       .  S
C253        C254   1.405       .  A
C253        H258   1.084       .  S
C254        C255   1.413       .  A
C255        N259   1.428       .  S
C256        C261   1.405       .  A
C256        C265   1.393       .  A
N257        O272   1.262   1_455  A
N257        O273   1.260   1_455  A
N259        O270   1.262       .  A
N259        O271   1.262       .  A
C261        C262   1.403       .  A
C261        N266   1.428       .  S
C262        C263   1.409       .  A
C262        H267   1.082       .  S
C263        C264   1.422       .  A
C264        C265   1.401       .  A
C264        N268   1.428       .  S
C265        H269   1.084       .  S
N266        O276   1.262       .  A
N266        O277   1.261       .  A
N268        O274   1.259       .  A
N268        O275   1.262       .  A
C278        C279   1.405       .  A
C278        C283   1.400       .  A
C278        H288   1.083       .  S
C279        C280   1.420       .  A
C279        C284   1.506       .  S
C280        C281   1.411       .  A
C280        N285   1.429       .  S
C281        C282   1.403       .  A
C281        H286   1.084       .  S
C282        C283   1.412       .  A
C283        N287   1.430       .  S
C284        C289   1.416       .  A
C284        C293   1.407       .  A
N285        O300   1.262       .  A
N285        O301   1.262       .  A
N287        O298   1.262       .  A
N287        O299   1.262       .  A
C289        C290   1.405       .  A
C289        N294   1.431       .  S
C290        C291   1.405       .  A
C290        H295   1.082       .  S
C291        C292   1.418       .  A
C292        C293   1.408       .  A
C292        N296   1.436       .  S
C293        H297   1.082       .  S
N294        O304   1.262       .  A
N294        O305   1.262       .  A
N296        O302   1.262       .  A
N296        O303   1.263       .  A
C306        C307   1.401       .  A
C306        C311   1.392       .  A
C306        H316   1.084       .  S
C307        C308   1.410       .  A
C307        C312   1.473       .  S
C308        C309   1.401       .  A
C308        N313   1.429       .  S
C309        C310   1.401       .  A
C309        H314   1.084       .  S
C310        C311   1.406       .  A
C311        N315   1.431       .  S
C312        C317   1.405       .  A
C312        C321   1.406       .  A
N313        O328   1.262       .  A
N313        O329   1.262       .  A
N315        O326   1.262       .  A
N315        O327   1.262       .  A
C317        C318   1.388       .  A
C317        N322   1.430       .  S
C318        C319   1.405       .  A
C318        H323   1.084       .  S
C319        C320   1.409       .  A
C320        C321   1.404       .  A
C320        N324   1.428       .  S
C321        H325   1.084       .  S
N322        O332   1.262       .  A
N322        O333   1.261       .  A
N324        O330   1.262       .  A
N324        O331   1.262       .  A
C334        C335   1.415       .  A
C334        C339   1.412       .  A
C334        H344   1.082       .  S
C335        C336   1.418       .  A
C335        C340   1.514       .  S
C336        C337   1.401       .  A
C336        N341   1.430       .  S
C337        C338   1.405       .  A
C337        H342   1.084       .  S
C338        C339   1.410       .  A
C339        N343   1.428       .  S
C340        C345   1.417       .  A
C340        C349   1.411       .  A
N341        O356   1.262       .  A
N341        O357   1.262       .  A
N343        O354   1.262       .  A
N343        O355   1.261       .  A
C345        C346   1.404       .  A
C345        N350   1.429       .  S
C346        C347   1.405       .  A
C346        H351   1.083       .  S
C347        C348   1.417       .  A
C348        C349   1.409       .  A
C348        N352   1.432       .  S
C349        H353   1.081       .  S
N350        O360   1.262       .  A
N350        O361   1.262       .  A
N352        O358   1.259       .  A
N352        O359   1.258       .  A
C362        C363   1.406       .  A
C362        C367   1.407       .  A
C362        H372   1.083       .  S
C363        C364   1.409       .  A
C363        C368   1.490       .  S
C364        C365   1.401       .  A
C364        N369   1.433       .  S
C365        C366   1.405       .  A
C365        H370   1.081       .  S
C366        C367   1.412       .  A
C367        N371   1.428       .  S
C368        C373   1.412       .  A
C368        C377   1.404       .  A
N369        O384   1.262       .  A
N369        O385   1.262       .  A
N371        O382   1.262       .  A
N371        O383   1.261       .  A
C373        C374   1.405       .  A
C373        N378   1.427       .  S
C374        C375   1.402       .  A
C374        H379   1.084   1_545  S
C375        C376   1.411       .  A
C376        C377   1.399       .  A
C376        N380   1.430       .  S
C377        H381   1.084       .  S
N378        O388   1.262       .  A
N378        O389   1.262       .  A
N380        O386   1.262       .  A
N380        O387   1.262       .  A
C390        C391   1.403       .  A
C390        C395   1.394       .  A
C390        H400   1.083       .  S
C391        C392   1.411       .  A
C391        C396   1.477       .  S
C392        C393   1.396       .  A
C392        N397   1.430       .  S
C393        C394   1.401       .  A
C393        H398   1.084       .  S
C394        C395   1.407       .  A
C395        N399   1.430       .  S
C396        C401   1.410       .  A
C396        C405   1.408       .  A
N397        O412   1.262       .  A
N397        O413   1.262       .  A
N399        O410   1.262       .  A
N399        O411   1.262       .  A
C401        C402   1.390       .  A
C401        N406   1.430       .  S
C402        C403   1.399       .  A
C402        H407   1.085       .  S
C403        C404   1.402       .  A
C404        C405   1.399       .  A
C404        N408   1.428       .  S
C405        H409   1.083       .  S
N406        O416   1.262       .  A
N406        O417   1.262       .  A
N408        O414   1.262       .  A
N408        O415   1.262       .  A
C418        C419   1.403       .  A
C418        C423   1.406       .  A
C418        H428   1.117       .  S
C419        C420   1.412       .  A
C419        C424   1.497       .  S
C420        C421   1.405       .  A
C420        N425   1.431       .  S
C421        C422   1.407       .  A
C421        H426   1.094       .  S
C422        C423   1.410       .  A
C423        N427   1.427   1_655  S
C424        C429   1.408       .  A
C424        C433   1.403       .  A
N425        O440   1.262       .  A
N425        O441   1.262       .  A
N427        O438   1.262       .  A
N427        O439   1.262       .  A
C429        C430   1.405       .  A
C429        N434   1.429       .  S
C430        C431   1.408       .  A
C430        H435   1.083       .  S
C431        C432   1.425       .  A
C432        C433   1.414       .  A
C432        N436   1.440       .  S
C433        H437   1.082       .  S
N434        O444   1.262       .  A
N434        O445   1.262       .  A
N436        O442   1.258       .  A
N436        O443   1.263       .  A
C446        C447   1.407       .  A
C446        C451   1.413       .  A
C446        H456   1.083       .  S
C447        C448   1.411       .  A
C447        C452   1.494       .  S
C448        C449   1.395       .  A
C448        N453   1.427       .  S
C449        C450   1.402       .  A
C449        H454   1.084       .  S
C450        C451   1.414       .  A
C451        N455   1.427       .  S
C452        C457   1.410       .  A
C452        C461   1.403       .  A
N453        O468   1.262       .  A
N453        O469   1.261       .  A
N455        O466   1.262       .  A
N455        O467   1.262       .  A
C457        C458   1.405       .  A
C457        N462   1.430       .  S
C458        C459   1.407       .  A
C458        H463   1.083       .  S
C459        C460   1.420       .  A
C460        C461   1.411       .  A
C460        N464   1.434       .  S
C461        H465   1.084       .  S
N462        O472   1.262       .  A
N462        O473   1.262       .  A
N464        O470   1.262       .  A
N464        O471   1.262       .  A
C474        C475   1.401       .  A
C474        C479   1.403       .  A
C474        H484   1.084       .  S
C475        C476   1.405       .  A
C475        C480   1.475       .  S
C476        C477   1.394   1_565  A
C476        N481   1.429       .  S
C477        C478   1.406       .  A
C477        H482   1.084       .  S
C478        C479   1.417   1_545  A
C479        N483   1.431       .  S
C480        C485   1.406       .  A
C480        C489   1.404       .  A
N481        O496   1.262       .  A
N481        O497   1.262       .  A
N483        O494   1.262   1_565  A
N483        O495   1.262       .  A
C485        C486   1.399       .  A
C485        N490   1.429       .  S
C486        C487   1.405       .  A
C486        H491   1.084       .  S
C487        C488   1.405       .  A
C488        C489   1.398       .  A
C488        N492   1.428       .  S
C489        H493   1.084       .  S
N490        O500   1.262       .  A
N490        O501   1.261       .  A
N492        O498   1.262       .  A
N492        O499   1.262       .  A
C502        C503   1.408       .  A
C502        C507   1.404       .  A
C502        H512   1.083       .  S
C503        C504   1.421       .  A
C503        C508   1.504       .  S
C504        C505   1.401       .  A
C504        N509   1.428       .  S
C505        C506   1.398       .  A
C505        H510   1.085       .  S
C506        C507   1.411       .  A
C507        N511   1.429       .  S
C508        C513   1.417       .  A
C508        C517   1.403       .  A
N509        O524   1.262       .  A
N509        O525   1.261       .  A
N511        O522   1.261       .  A
N511        O523   1.262       .  A
C513        C514   1.402   1_655  A
C513        N518   1.429       .  S
C514        C515   1.402       .  A
C514        H519   1.084       .  S
C515        C516   1.425   1_455  A
C516        C517   1.407       .  A
C516        N520   1.447       .  S
C517        H521   1.081       .  S
N518        O528   1.262       .  A
N518        O529   1.262   1_655  A
N520        O526   1.259   1_655  A
N520        O527   1.263       .  A
C530        C531   1.410       .  A
C530        C535   1.411       .  A
C530        H540   1.084       .  S
C531        C532   1.415       .  A
C531        C536   1.503       .  S
C532        C533   1.403       .  A
C532        N537   1.434       .  S
C533        C534   1.410       .  A
C533        H538   1.084       .  S
C534        C535   1.413       .  A
C535        N539   1.428       .  S
C536        C541   1.416       .  A
C536        C545   1.406       .  A
N537        O552   1.262       .  A
N537        O553   1.263       .  A
N539        O550   1.262       .  A
N539        O551   1.262       .  A
C541        C542   1.406       .  A
C541        N546   1.434       .  S
C542        C543   1.406       .  A
C542        H547   1.084       .  S
C543        C544   1.415       .  A
C544        C545   1.407       .  A
C544        N548   1.427       .  S
C545        H549   1.084       .  S
N546        O556   1.262       .  A
N546        O557   1.263       .  A
N548        O554   1.260   1_565  A
N548        O555   1.260       .  A
C558        C559   1.404       .  A
C558        C563   1.402       .  A
C558        H568   1.084       .  S
C559        C560   1.402       .  A
C559        C564   1.470       .  S
C560        C561   1.395       .  A
C560        N565   1.429       .  S
C561        C562   1.407       .  A
C561        H566   1.084       .  S
C562        C563   1.410       .  A
C563        N567   1.429       .  S
C564        C569   1.405   1_455  A
C564        C573   1.399       .  A
N565        O580   1.262       .  A
N565        O581   1.262       .  A
N567        O578   1.262       .  A
N567        O579   1.262       .  A
C569        C570   1.399       .  A
C569        N574   1.428       .  S
C570        C571   1.406       .  A
C570        H575   1.084       .  S
C571        C572   1.414       .  A
C572        C573   1.397   1_655  A
C572        N576   1.430   1_655  S
C573        H577   1.084       .  S
N574        O584   1.262       .  A
N574        O585   1.262       .  A
N576        O582   1.262   1_455  A
N576        O583   1.262       .  A
C586        C587   1.396       .  A
C586        C591   1.403   1_655  A
C586        H596   1.084       .  S
C587        C588   1.406       .  A
C587        C592   1.478       .  S
C588        C589   1.403   1_655  A
C588        N593   1.428       .  S
C589        C590   1.406       .  A
C589        H594   1.083       .  S
C590        C591   1.420       .  A
C591        N595   1.437       .  S
C592        C597   1.406       .  A
C592        C601   1.404       .  A
N593        O608   1.262       .  A
N593        O609   1.261       .  A
N595        O606   1.260       .  A
N595        O607   1.262       .  A
C597        C598   1.394       .  A
C597        N602   1.430       .  S
C598        C599   1.406       .  A
C598        H603   1.084       .  S
C599        C600   1.411       .  A
C600        C601   1.407       .  A
C600        N604   1.428       .  S
C601        H605   1.084       .  S
N602        O612   1.262       .  A
N602        O613   1.262       .  A
N604        O610   1.262       .  A
N604        O611   1.262       .  A
C614        C615   1.410       .  A
C614        C619   1.412       .  A
C614        H624   1.083       .  S
C615        C616   1.413       .  A
C615        C620   1.506       .  S
C616        C617   1.405       .  A
C616        N621   1.430       .  S
C617        C618   1.408       .  A
C617        H622   1.084       .  S
C618        C619   1.411       .  A
C619        N623   1.428       .  S
C620        C625   1.411       .  A
C620        C629   1.407       .  A
N621        O636   1.262       .  A
N621        O637   1.262       .  A
N623        O634   1.262       .  A
N623        O635   1.262       .  A
C625        C626   1.403       .  A
C625        N630   1.428       .  S
C626        C627   1.406       .  A
C626        H631   1.084       .  S
C627        C628   1.424       .  A
C628        C629   1.415       .  A
C628        N632   1.438       .  S
C629        H633   1.083       .  S
N630        O640   1.262       .  A
N630        O641   1.262       .  A
N632        O638   1.259       .  A
N632        O639   1.262       .  A
C642        C643   1.404       .  A
C642        C647   1.403       .  A
C642        H652   1.084       .  S
C643        C644   1.410       .  A
C643        C648   1.476       .  S
C644        C645   1.391       .  A
C644        N649   1.431       .  S
C645        C646   1.402       .  A
C645        H650   1.085       .  S
C646        C647   1.409       .  A
C647        N651   1.428       .  S
C648        C653   1.412       .  A
C648        C657   1.399       .  A
N649        O664   1.262       .  A
N649        O665   1.262       .  A
N651        O662   1.262       .  A
N651        O663   1.262       .  A
C653        C654   1.403       .  A
C653        N658   1.429       .  S
C654        C655   1.401       .  A
C654        H659   1.084       .  S
C655        C656   1.412       .  A
C656        C657   1.390       .  A
C656        N660   1.431       .  S
C657        H661   1.084       .  S
N658        O668   1.262       .  A
N658        O669   1.262       .  A
N660        O666   1.262       .  A
N660        O667   1.262       .  A
C670        C671   1.398       .  A
C670        C675   1.406       .  A
C670        H680   1.084       .  S
C671        C672   1.408       .  A
C671        C676   1.484       .  S
C672        C673   1.403       .  A
C672        N677   1.428       .  S
C673        C674   1.406       .  A
C673        H678   1.083       .  S
C674        C675   1.420       .  A
C675        N679   1.433       .  S
C676        C681   1.409       .  A
C676        C685   1.404       .  A
N677        O692   1.262       .  A
N677        O693   1.262       .  A
N679        O690   1.262       .  A
N679        O691   1.263       .  A
C681        C682   1.400       .  A
C681        N686   1.429       .  S
C682        C683   1.405       .  A
C682        H687   1.084       .  S
C683        C684   1.410       .  A
C684        C685   1.406       .  A
C684        N688   1.428       .  S
C685        H689   1.084       .  S
N686        O696   1.262       .  A
N686        O697   1.262       .  A
N688        O694   1.262       .  A
N688        O695   1.262       .  A
C698        C699   1.410       .  A
C698        C703   1.407       .  A
C698        H708   1.084       .  S
C699        C700   1.415       .  A
C699        C704   1.501       .  S
C700        C701   1.405       .  A
C700        N705   1.432       .  S
C701        C702   1.410       .  A
C701        H706   1.084       .  S
C702        C703   1.410       .  A
C703        N707   1.428       .  S
C704        C709   1.415       .  A
C704        C713   1.403       .  A
N705        O720   1.262   1_565  A
N705        O721   1.262   1_565  A
N707        O718   1.262       .  A
N707        O719   1.262       .  A
C709        C710   1.410       .  A
C709        N714   1.433       .  S
C710        C711   1.409       .  A
C710        H715   1.084       .  S
C711        C712   1.415       .  A
C712        C713   1.401       .  A
C712        N716   1.427       .  S
C713        H717   1.084       .  S
N714        O724   1.262       .  A
N714        O725   1.263       .  A
N716        O722   1.260       .  A
N716        O723   1.261       .  A
C726        C727   1.402   1_565  A
C726        C731   1.396       .  A
C726        H736   1.084       .  S
C727        C728   1.406       .  A
C727        C732   1.473       .  S
C728        C729   1.399   1_545  A
C728        N733   1.429       .  S
C729        C730   1.405       .  A
C729        H734   1.084       .  S
C730        C731   1.410       .  A
C731        N735   1.430       .  S
C732        C737   1.404       .  A
C732        C741   1.407       .  A
N733        O748   1.262       .  A
N733        O749   1.261       .  A
N735        O746   1.262       .  A
N735        O747   1.262       .  A
C737        C738   1.388       .  A
C737        N742   1.430       .  S
C738        C739   1.406       .  A
C738        H743   1.085       .  S
C739        C740   1.408       .  A
C740        C741   1.405       .  A
C740        N744   1.428       .  S
C741        H745   1.084       .  S
N742        O752   1.261       .  A
N742        O753   1.262       .  A
N744        O750   1.262       .  A
N744        O751   1.262       .  A
C754        C755   1.409       .  A
C754        C759   1.410       .  A
C754        H764   1.083       .  S
C755        C756   1.415       .  A
C755        C760   1.499       .  S
C756        C757   1.398       .  A
C756        N761   1.431       .  S
C757        C758   1.404       .  A
C757        H762   1.084       .  S
C758        C759   1.411       .  A
C759        N763   1.428       .  S
C760        C765   1.413       .  A
C760        C769   1.401       .  A
N761        O776   1.262       .  A
N761        O777   1.262       .  A
N763        O774   1.262       .  A
N763        O775   1.262       .  A
C765        C766   1.407       .  A
C765        N770   1.428       .  S
C766        C767   1.405       .  A
C766        H771   1.083       .  S
C767        C768   1.419       .  A
C768        C769   1.403       .  A
C768        N772   1.434       .  S
C769        H773   1.083       .  S
N770        O780   1.262       .  A
N770        O781   1.262       .  A
N772        O778   1.259       .  A
N772        O779   1.263       .  A
C782        C783   1.400       .  A
C782        C787   1.406       .  A
C782        H792   1.084       .  S
C783        C784   1.414       .  A
C783        C788   1.496       .  S
C784        C785   1.411       .  A
C784        N789   1.430       .  S
C785        C786   1.406       .  A
C785        H790   1.084       .  S
C786        C787   1.419       .  A
C787        N791   1.432       .  S
C788        C793   1.410       .  A
C788        C797   1.405       .  A
N789        O804   1.262       .  A
N789        O805   1.262       .  A
N791        O802   1.262       .  A
N791        O803   1.262       .  A
C793        C794   1.404       .  A
C793        N798   1.429       .  S
C794        C795   1.404       .  A
C794        H799   1.084       .  S
C795        C796   1.415       .  A
C796        C797   1.411       .  A
C796        N800   1.431       .  S
C797        H801   1.086       .  S
N798        O808   1.262       .  A
N798        O809   1.261       .  A
N800        O806   1.262       .  A
N800        O807   1.261       .  A
C810        C811   1.400       .  A
C810        C815   1.393       .  A
C810        H820   1.084       .  S
C811        C812   1.413       .  A
C811        C816   1.476       .  S
C812        C813   1.399       .  A
C812        N817   1.430       .  S
C813        C814   1.400       .  A
C813        H818   1.084       .  S
C814        C815   1.411       .  A
C815        N819   1.429       .  S
C816        C821   1.411       .  A
C816        C825   1.402       .  A
N817        O832   1.262       .  A
N817        O833   1.262       .  A
N819        O830   1.261       .  A
N819        O831   1.262       .  A
C821        C822   1.395       .  A
C821        N826   1.430       .  S
C822        C823   1.400       .  A
C822        H827   1.084       .  S
C823        C824   1.410       .  A
C824        C825   1.398       .  A
C824        N828   1.432       .  S
C825        H829   1.084       .  S
N826        O836   1.262       .  A
N826        O837   1.262       .  A
N828        O834   1.262   1_655  A
N828        O835   1.262       .  A
C838        C839   1.412       .  A
C838        C843   1.414   1_565  A
C838        H848   1.083       .  S
C839        C840   1.413       .  A
C839        C844   1.507       .  S
C840        C841   1.400   1_565  A
C840        N845   1.430       .  S
C841        C842   1.408       .  A
C841        H846   1.084       .  S
C842        C843   1.413       .  A
C843        N847   1.427       .  S
C844        C849   1.415       .  A
C844        C853   1.407       .  A
N845        O860   1.262       .  A
N845        O861   1.262       .  A
N847        O858   1.261       .  A
N847        O859   1.262       .  A
C849        C850   1.409       .  A
C849        N854   1.433       .  S
C850        C851   1.407       .  A
C850        H855   1.084       .  S
C851        C852   1.413       .  A
C852        C853   1.407       .  A
C852        N856   1.427       .  S
C853        H857   1.083       .  S
N854        O864   1.262       .  A
N854        O865   1.262       .  A
N856        O862   1.261       .  A
N856        O863   1.261       .  A
C866        C867   1.409       .  A
C866        C871   1.406       .  A
C866        H876   1.084       .  S
C867        C868   1.413       .  A
C867        C872   1.497       .  S
C868        C869   1.402       .  A
C868        N873   1.433       .  S
C869        C870   1.409       .  A
C869        H874   1.084       .  S
C870        C871   1.412       .  A
C871        N875   1.428       .  S
C872        C877   1.413       .  A
C872        C881   1.400       .  A
N873        O888   1.262       .  A
N873        O889   1.262       .  A
N875        O886   1.262       .  A
N875        O887   1.262       .  A
C877        C878   1.406       .  A
C877        N882   1.430       .  S
C878        C879   1.406       .  A
C878        H883   1.083       .  S
C879        C880   1.422       .  A
C880        C881   1.402       .  A
C880        N884   1.434       .  S
C881        H885   1.084       .  S
N882        O892   1.263       .  A
N882        O893   1.262       .  A
N884        O890   1.260       .  A
N884        O891   1.263       .  A
C894        C895   1.400       .  A
C894        C899   1.391       .  A
C894        H904   1.084       .  S
C895        C896   1.408       .  A
C895        C900   1.469       .  S
C896        C897   1.398   1_655  A
C896        N901   1.427       .  S
C897        C898   1.400       .  A
C897        H902   1.084       .  S
C898        C899   1.409   1_455  A
C899        N903   1.430       .  S
C900        C905   1.407       .  A
C900        C909   1.401       .  A
N901        O916   1.262       .  A
N901        O917   1.262       .  A
N903        O914   1.262       .  A
N903        O915   1.262   1_655  A
C905        C906   1.391       .  A
C905        N910   1.430       .  S
C906        C907   1.402       .  A
C906        H911   1.084       .  S
C907        C908   1.413       .  A
C908        C909   1.400       .  A
C908        N912   1.429       .  S
C909        H913   1.084       .  S
N910        O920   1.262       .  A
N910        O921   1.262       .  A
N912        O918   1.262       .  A
N912        O919   1.262       .  A
C922        C923   1.408       .  A
C922        C927   1.410       .  A
C922        H932   1.084       .  S
C923        C924   1.419       .  A
C923        C928   1.511       .  S
C924        C925   1.410       .  A
C924        N929   1.427       .  S
C925        C926   1.403       .  A
C925        H930   1.084       .  S
C926        C927   1.411       .  A
C927        N931   1.428       .  S
C928        C933   1.414       .  A
C928        C937   1.408       .  A
N929        O944   1.260       .  A
N929        O945   1.262       .  A
N931        O942   1.262       .  A
N931        O943   1.262       .  A
C933        C934   1.409       .  A
C933        N938   1.432       .  S
C934        C935   1.408       .  A
C934        H939   1.083       .  S
C935        C936   1.423       .  A
C936        C937   1.416       .  A
C936        N940   1.439       .  S
C937        H941   1.083       .  S
N938        O948   1.262       .  A
N938        O949   1.263       .  A
N940        O946   1.260       .  A
N940        O947   1.263       .  A
C950        C951   1.396       .  A
C950        C955   1.404       .  A
C950        H960   1.084       .  S
C951        C952   1.408       .  A
C951        C956   1.482       .  S
C952        C953   1.404       .  A
C952        N957   1.427       .  S
C953        C954   1.403       .  A
C953        H958   1.084       .  S
C954        C955   1.423       .  A
C955        N959   1.441       .  S
C956        C961   1.406       .  A
C956        C965   1.404       .  A
N957        O972   1.262       .  A
N957        O973   1.262       .  A
N959        O970   1.263       .  A
N959        O971   1.259       .  A
C961        C962   1.397       .  A
C961        N966   1.430       .  S
C962        C963   1.407       .  A
C962        H967   1.084       .  S
C963        C964   1.412       .  A
C964        C965   1.409       .  A
C964        N968   1.428       .  S
C965        H969   1.084       .  S
N966        O976   1.262       .  A
N966        O977   1.262       .  A
N968        O974   1.262       .  A
N968        O975   1.262       .  A
C978        C979   1.405       .  A
C978        C983   1.398       .  A
C978        H988   1.084       .  S
C979        C980   1.409       .  A
C979        C984   1.477       .  S
C980        C981   1.397       .  A
C980        N985   1.431       .  S
C981        C982   1.404       .  A
C981        H986   1.084       .  S
C982        C983   1.408       .  A
C983        N987   1.429       .  S
C984        C989   1.413       .  A
C984        C993   1.399       .  A
N985       O1000   1.262       .  A
N985       O1001   1.262       .  A
N987        O998   1.262       .  A
N987        O999   1.262       .  A
C989        C990   1.404       .  A
C989        N994   1.431       .  S
C990        C991   1.401       .  A
C990        H995   1.084       .  S
C991        C992   1.410       .  A
C992        C993   1.392       .  A
C992        N996   1.430       .  S
C993        H997   1.084       .  S
N994       O1004   1.262       .  A
N994       O1005   1.262       .  A
N996       O1002   1.262       .  A
N996       O1003   1.262       .  A
