geometry optimzed in LAMMPS
_audit_creation_date              2020-11-30 
_audit_creation_method            'lammps2cif' 
_symmetry_space_group_name_H-M    'P1' 
_symmetry_Int_Tables_number       1 
_symmetry_cell_setting            triclinic 
loop_ 
_symmetry_equiv_pos_as_xyz 
  x,y,z 
_cell_length_a                    50.72155965 
_cell_length_b                    46.91500387459295 
_cell_length_c                    62.416241419332636 
_cell_angle_alpha                 88.48569787165974 
_cell_angle_beta                  88.96780569814473 
_cell_angle_gamma                 117.73915730403169 
loop_ 
_atom_site_label 
_atom_site_type_symbol 
_atom_site_fract_x 
_atom_site_fract_y 
_atom_site_fract_z 
_atom_site_charge 
C1          C  0.12378576  0.49079716  0.09146847     0.80600
N2          N  0.13028172  0.46577345  0.09099334    -0.77700
C3          C  0.14924806  0.46371887  0.10529326     0.83100
N4          N  0.16130877  0.48656289  0.12016267    -0.77600
C5          C  0.15351793  0.00691214  0.11708857     0.83200
N6          N  0.13458438  0.00861605  0.10252321    -0.79400
C7          C  0.24600336  0.13863817  0.20251886     0.80600
N8          N  0.23066988  0.11161505  0.19112902    -0.77700
C9          C  0.21798929  0.11350862  0.17242951     0.83100
N10         N  0.22105449  0.14242265  0.16536854    -0.77600
C11         C  0.23641927  0.16944619  0.17628150     0.83200
N12         N  0.24890802  0.16764015  0.19505579    -0.79400
C13         C  0.05946752  0.17087118  0.10995429     0.80600
N14         N  0.03605805  0.15267928  0.12363801    -0.77700
C15         C  0.51289624  0.12177594  0.11838931     0.83100
N16         N  0.51377562  0.11131973  0.09842867    -0.77600
C17         C  0.03832915  0.13191217  0.08387277     0.83200
N18         N  0.06063777  0.16029642  0.09005996    -0.79400
C19         C  0.36313692  0.00562862  0.18474528     0.80600
N20         N  0.38842022  0.01991195  0.17202091    -0.77700
C21         C  0.41039984  0.04990151  0.17633681     0.83100
N22         N  0.40673548  0.06521397  0.19347949    -0.77600
C23         C  0.38159574  0.05112598  0.20610765     0.83200
N24         N  0.35967944  0.02162916  0.20149658    -0.79400
C25         C  0.04226079  0.29084865  0.18650637     0.80600
N26         N  0.02653450  0.27240484  0.20401232    -0.77700
C27         C  0.49878256  0.26288223  0.20813105     0.83100
N28         N  0.48549040  0.27442304  0.19431853    -0.77600
C29         C  0.50057928  0.29297995  0.17679213     0.83200
N30         N  0.02848349  0.30139795  0.17210754    -0.79400
C31         C  0.39373996  0.34433479  0.11411332     0.80600
N32         N  0.40976998  0.33493963  0.12703217    -0.77700
C33         C  0.43686248  0.33839996  0.12035778     0.83100
N34         N  0.44795274  0.35168196  0.10047391    -0.77600
C35         C  0.43205575  0.36106962  0.08738686     0.83200
N36         N  0.40507126  0.35750009  0.09424885    -0.79400
Zr37       Zr  0.17304917  0.33429755  0.11949656     2.17500
O38         O  0.15670618  0.34036318  0.08396695    -0.50900
O39         O  0.12900553  0.32545513  0.14035116    -0.74100
O40         O  0.13507524  0.28179351  0.10830767    -0.80900
O41         O  0.21605343  0.42436958  0.12597020    -0.82700
O42         O  0.14623324  0.24419216  0.12344997    -0.78300
O43         O  0.17269829  0.38584288  0.11311281    -0.89900
O44         O  0.13638549  0.31845085  0.17552913    -0.75900
O45         O  0.16794342  0.29696864  0.14787250    -0.85400
O46         O  0.19281044  0.36447116  0.15061863    -0.85100
O47         O  0.20049670  0.30715023  0.10739259    -0.71800
O48         O  0.22428506  0.37058033  0.11007203    -0.84000
Zr49       Zr  0.26802524  0.33705316  0.15856766     2.26400
Zr50       Zr  0.19642230  0.27119762  0.13661905     2.06300
Zr51       Zr  0.24398067  0.39977293  0.14171236     2.10000
Zr52       Zr  0.18763163  0.32712206  0.17870188     1.78800
O53         O  0.27742027  0.44503665  0.11824485    -0.92800
O54         O  0.15678846  0.27543217  0.19736457    -0.40600
O55         O  0.23950256  0.36316098  0.17057762    -0.77200
O56         O  0.21636240  0.30090183  0.16814830    -0.95900
O57         O  0.24765893  0.30624947  0.12767813    -0.89200
O58         O  0.27227255  0.37394465  0.13007032    -0.92000
C59         C  0.12028156  0.31945383  0.16011544     1.01700
C60         C  0.19094173  0.41523153  0.11713388     1.14600
C61         C  0.12922439  0.25251185  0.11291896     1.05400
O62         O  0.16486480  0.22034350  0.15591159    -0.94200
O63         O  0.22284184  0.24684806  0.15508827    -0.89900
O64         O  0.26559250  0.28493559  0.16882560    -0.83100
C65         C  0.24676745  0.25546035  0.16556454     1.12100
O66         O  0.23626967  0.34667844  0.06315238    -0.96200
Zr67       Zr  0.25208858  0.34330185  0.09938394     1.88900
O68         O  0.31008067  0.33995073  0.13703271    -0.72800
O69         O  0.20381931  0.24291815  0.10683801    -0.52100
O70         O  0.25012962  0.30035627  0.07723392    -0.96800
O71         O  0.28484728  0.39392124  0.08009972    -0.54000
O72         O  0.30116354  0.34660866  0.10214268    -0.73300
C73         C  0.31739109  0.34422801  0.11689325     0.99000
O74         O  0.28656843  0.33787657  0.19449002    -0.62200
O75         O  0.24009244  0.43382928  0.16910248    -0.57000
O76         O  0.30757030  0.39071753  0.16753690    -0.93600
O77         O  0.29051713  0.42674264  0.15966740    -0.92100
O78         O  0.18747719  0.36997092  0.19982933    -0.92400
O79         O  0.20228713  0.32592433  0.21551978    -0.91200
C80         C  0.31013733  0.41941602  0.16699743     1.17800
H81         H  0.18228907  0.37632307  0.15454974     0.33800
H82         H  0.21512381  0.28647885  0.17990311     0.44600
H83         H  0.29280132  0.38959348  0.12703859     0.38200
H84         H  0.19154744  0.29511433  0.09486772     0.34700
H85         H  0.14576179  0.28023509  0.20875458     0.26400
H86         H  0.22375727  0.24450601  0.10892916     0.32400
H87         H  0.26377613  0.29323389  0.08385614     0.38300
H88         H  0.16676596  0.36124079  0.20562638     0.32700
H89         H  0.25028252  0.45593742  0.16256392     0.31600
H90         H  0.27929005  0.46437328  0.12549756     0.33300
H91         H  0.30463081  0.39460800  0.07909621     0.32300
H92         H  0.22064360  0.32354763  0.21421418     0.36300
H93         H  0.28358681  0.35467793  0.20181647     0.29000
H94         H  0.13478642  0.33130026  0.08557730     0.33200
H95         H  0.25286325  0.34898531  0.05343857     0.36100
H96         H  0.21876299  0.42845332  0.16990623     0.28700
H97         H  0.27185603  0.31752993  0.20184303     0.41600
H98         H  0.15694590  0.22643599  0.16861734     0.31600
H99         H  0.14137732  0.26293632  0.18705398     0.39200
H100        H  0.28745032  0.41093060  0.09012772     0.31100
H101        H  0.18975608  0.21993934  0.11011779     0.31200
H102        H  0.15982911  0.32491323  0.07511621     0.31400
Zr103      Zr  0.36090493  0.16699448  0.35408792     2.17500
O104        O  0.35913318  0.13463982  0.38584558    -0.50900
O105        O  0.36007277  0.21119418  0.37331140    -0.74100
O106        O  0.40852416  0.18956707  0.37176065    -0.80900
O107        O  0.27784515  0.11228167  0.34671604    -0.82700
O108        O  0.44603428  0.21124920  0.34631551    -0.78300
O109        O  0.31299544  0.13375831  0.37203775    -0.89900
O110        O  0.36271887  0.24901054  0.34861560    -0.75900
O111        O  0.39229104  0.21464720  0.33363804    -0.85400
O112        O  0.32816340  0.17966813  0.33369228    -0.85100
O113        O  0.39266924  0.15284274  0.33273735    -0.71800
O114        O  0.33388833  0.12167421  0.33217496    -0.84000
Zr115      Zr  0.36577674  0.16990035  0.26892414     2.26400
Zr116      Zr  0.42352627  0.20096271  0.31167831     2.06300
Zr117      Zr  0.30178011  0.13494888  0.31119047     2.10000
Zr118      Zr  0.35989888  0.22730977  0.31317413     1.78800
O119        O  0.26782253  0.07816501  0.30663990    -0.92800
O120        O  0.40176170  0.28141724  0.31003873    -0.40600
O121        O  0.33348701  0.18304575  0.29050367    -0.77200
O122        O  0.39228346  0.21556911  0.29059900    -0.95900
O123        O  0.39743823  0.15629201  0.28951068    -0.89200
O124        O  0.33353202  0.12188963  0.28913751    -0.92000
C125        C  0.36198476  0.23872814  0.36798036     1.01700
C126        C  0.28636366  0.11551110  0.36627260     1.14600
C127        C  0.43615079  0.20445356  0.36577423     1.05400
O128        O  0.45906638  0.25805640  0.31187966    -0.94200
O129        O  0.44990157  0.21727708  0.27715791    -0.89900
O130        O  0.41503338  0.19837153  0.25156310    -0.83100
C131        C  0.44196554  0.21367306  0.25763500     1.12100
O132        O  0.36418086  0.07328112  0.33966501    -0.96200
Zr133      Zr  0.36553932  0.10876889  0.30992386     1.88900
O134        O  0.36936282  0.12713920  0.24982940    -0.72800
O135        O  0.46148405  0.18290240  0.31183714    -0.52100
O136        O  0.41148811  0.10420496  0.30982127    -0.96800
O137        O  0.32358699  0.05467250  0.30962196    -0.54000
O138        O  0.36985147  0.09075752  0.27444326    -0.73300
C139        C  0.37086830  0.10133097  0.25513050     0.99000
O140        O  0.36754754  0.20358282  0.23774607    -0.62200
O141        O  0.26135380  0.14906641  0.31419190    -0.57000
O142        O  0.31952412  0.15064600  0.25033212    -0.93600
O143        O  0.28154168  0.13412261  0.27540805    -0.92100
O144        O  0.31440307  0.23269096  0.31557151    -0.92400
O145        O  0.35472657  0.26001504  0.28424863    -0.91200
C146        C  0.29207693  0.14032633  0.25589917     1.17800
H147        H  0.31457698  0.18311271  0.34300201     0.33800
H148        H  0.40435569  0.23435900  0.28150008     0.44600
H149        H  0.32182151  0.10471445  0.27980462     0.38200
H150        H  0.40473872  0.14713189  0.34193073     0.34700
H151        H  0.39399556  0.29549880  0.31600937     0.26400
H152        H  0.48027532  0.20243929  0.31465422     0.32400
H153        H  0.40676535  0.08407749  0.30239543     0.38300
H154        H  0.31019196  0.23291651  0.33109621     0.32700
H155        H  0.24324448  0.12824965  0.31712150     0.31600
H156        H  0.24913888  0.07774988  0.30187628     0.33300
H157        H  0.31576804  0.05258395  0.29501478     0.32300
H158        H  0.36223302  0.25409700  0.27124261     0.36300
H159        H  0.35064812  0.20836434  0.23995403     0.29000
H160        H  0.36597279  0.14977013  0.39771380     0.33200
H161        H  0.36764874  0.05626563  0.33311120     0.36100
H162        H  0.26452381  0.16047346  0.32777229     0.28700
H163        H  0.38522974  0.22471998  0.23944944     0.41600
H164        H  0.45356028  0.26813905  0.29981985     0.31600
H165        H  0.41588699  0.28135982  0.32076144     0.39200
H166        H  0.30803271  0.05554773  0.31898345     0.31100
H167        H  0.45715060  0.16904513  0.32502216     0.31200
H168        H  0.37517092  0.12855099  0.38339483     0.31400
C169        C  0.34637677  0.47238715  0.51555606     0.80600
N170        N  0.33328423  0.48592617  0.50263513    -0.77700
C171        C  0.30497550  0.48105709  0.50732371     0.83100
N172        N  0.29023955  0.46277434  0.52516025    -0.77600
C173        C  0.30309677  0.44937180  0.53806045     0.83200
N174        N  0.33101223  0.45405829  0.53314969    -0.79400
C175        C  0.19788595  0.04245728  0.44513731     0.80600
N176        N  0.21272099  0.02975343  0.45670779    -0.77700
C177        C  0.24008108  0.03392065  0.45001180     0.83100
N178        N  0.25233281  0.05075084  0.43118166    -0.77600
C179        C  0.23764332  0.06333038  0.41930599     0.83200
N180        N  0.21051003  0.05930936  0.42637832    -0.79400
C181        C  0.17666294  0.20443539  0.50216768     0.80600
N182        N  0.20321302  0.21890199  0.49114225    -0.77700
C183        C  0.22569784  0.24732385  0.49727902     0.83100
N184        N  0.22117201  0.26152067  0.51476267    -0.77600
C185        C  0.19452769  0.24725237  0.52591451     0.83200
N186        N  0.17241024  0.21871641  0.51964325    -0.79400
C187        C  0.38555572  0.34355430  0.43658799     0.80600
N188        N  0.36071054  0.33158657  0.44988386    -0.77700
C189        C  0.33733704  0.30194703  0.44670080     0.83100
N190        N  0.33923877  0.28452344  0.43021369    -0.77600
C191        C  0.36370438  0.29610865  0.41695832     0.83200
N192        N  0.38677561  0.32569430  0.42008954    -0.79400
C193        C  0.04660043  0.32845103  0.54925095     0.80600
N194        N  0.04136003  0.30868463  0.53270543    -0.77700
C195        C  0.02831809  0.31256492  0.51484929     0.83100
N196        N  0.02044936  0.33664982  0.51377968    -0.77600
C197        C  0.02577880  0.35667585  0.53038149     0.83200
N198        N  0.03950051  0.35291168  0.54788645    -0.79400
C199        C  0.99229914  0.21310502  0.41008450     0.80600
N200        N  0.00114237  0.19000402  0.41102960    -0.77700
C201        C  0.01857834  0.18917047  0.42698565     0.83100
N202        N  0.02626080  0.21108561  0.44262078    -0.77600
C203        C  0.01706186  0.23419225  0.44194188     0.83200
N204        N  0.00001647  0.23493429  0.42558325    -0.79400
Zr205      Zr  0.48360691  0.48215771  0.49609783     2.17500
O206        O  0.46584432  0.46641249  0.53318766    -0.50900
O207        O  0.44573256  0.43545655  0.47894350    -0.74100
O208        O  0.43727825  0.48701501  0.50077548    -0.80900
O209        O  0.03191539  0.43929320  0.50143359    -0.82700
O210        O  0.44127227  0.02897727  0.47817180    -0.78300
O211        O  0.49265066  0.43761450  0.50894888    -0.89900
O212        O  0.45826125  0.44054403  0.44337296    -0.75900
O213        O  0.47558845  0.50342776  0.46333299    -0.85400
O214        O  0.00599289  0.46284793  0.46867505    -0.85100
O215        O  0.49979146  0.03656736  0.50191808    -0.71800
O216        O  0.02537713  0.49579873  0.50765734    -0.84000
Zr217      Zr  0.07008379  0.07402136  0.45701426     2.26400
Zr218      Zr  0.49366491  0.05850854  0.46843393     2.06300
Zr219      Zr  0.05630506  0.48944508  0.48056854     2.10000
Zr220      Zr  0.00064126  0.48654037  0.43626805     1.78800
O221        O  0.09016049  0.49119204  0.50826302    -0.92800
O222        O  0.46486536  0.49681920  0.41453045    -0.40600
O223        O  0.05264929  0.01885157  0.44724735    -0.77200
O224        O  0.02053568  0.04796844  0.44298250    -0.95900
O225        O  0.03855899  0.07875368  0.48377675    -0.89200
O226        O  0.07394053  0.04698713  0.48874814    -0.92000
C227        C  0.44141794  0.42511005  0.45982896     1.01700
C228        C  0.00532736  0.41939457  0.50803128     1.14600
C229        C  0.42774772  0.50614492  0.49283655     1.05400
O230        O  0.46773262  0.06493855  0.43769991    -0.94200
O231        O  0.01436756  0.10630986  0.45382277    -0.89900
O232        O  0.06362238  0.12157664  0.44796670    -0.83100
C233        C  0.04090184  0.12686813  0.44775111     1.12100
O234        O  0.01977751  0.02821733  0.55056840    -0.96200
Zr235      Zr  0.04227202  0.05189986  0.51541014     1.88900
O236        O  0.10456764  0.11655052  0.47944454    -0.72800
O237        O  0.48092458  0.09176861  0.49150497    -0.52100
O238        O  0.02556790  0.08618395  0.53372332    -0.96800
O239        O  0.07740212  0.04670210  0.53936280    -0.54000
O240        O  0.08456767  0.10570201  0.51344728    -0.73300
C241        C  0.10431635  0.12369111  0.49920621     0.99000
O242        O  0.09117897  0.09738304  0.42151461    -0.62200
O243        O  0.06321392  0.45050072  0.45922189    -0.57000
O244        O  0.11522400  0.06850231  0.44966209    -0.93600
O245        O  0.10748744  0.02005763  0.46406433    -0.92100
O246        O  0.01382545  0.44699306  0.42173732    -0.92400
O247        O  0.02056250  0.50079854  0.39955756    -0.91200
C248        C  0.12372021  0.04704123  0.45384898     1.17800
H249        H  0.99958106  0.44024255  0.46670838     0.33800
H250        H  0.02010834  0.05954886  0.43007402     0.44600
H251        H  0.09424352  0.05616194  0.49336630     0.38200
H252        H  0.48785180  0.03934025  0.51309273     0.34700
H253        H  0.45543534  0.47629225  0.40699520     0.26400
H254        H  0.46672725  0.09631906  0.48324598     0.32400
H255        H  0.04223824  0.09972551  0.54286542     0.38300
H256        H  0.99473630  0.42904201  0.41746191     0.32700
H257        H  0.07780617  0.44611517  0.46708331     0.31600
H258        H  0.09736907  0.47588118  0.50375203     0.33300
H259        H  0.09694004  0.06550800  0.53572400     0.32300
H260        H  0.04239183  0.02925650  0.40114084     0.36300
H261        H  0.09613677  0.08151038  0.41480706     0.29000
H262        H  0.44544460  0.44836131  0.53221819     0.33200
H263        H  0.03121033  0.04462636  0.56103799     0.36100
H264        H  0.04426072  0.43023689  0.46101230     0.28700
H265        H  0.07407459  0.09601431  0.41337222     0.41600
H266        H  0.45962066  0.07933486  0.44250814     0.31600
H267        H  0.44930450  0.49528349  0.42498784     0.39200
H268        H  0.07939161  0.02800310  0.53420172     0.31100
H269        H  0.46877587  0.07735035  0.50364914     0.31200
H270        H  0.46292016  0.48444887  0.53855447     0.31400
C271        C  0.29802221  0.36137094  0.74887578     0.80600
N272        N  0.31532855  0.38827229  0.75983026    -0.77700
C273        C  0.32656068  0.38544883  0.77899451     0.83100
N274        N  0.31994743  0.35571335  0.78693782    -0.77600
C275        C  0.30282034  0.32884928  0.77634796     0.83200
N276        N  0.29185177  0.33156940  0.75710987    -0.79400
C277        C  0.40225839  0.00273285  0.86661286     0.80600
N278        N  0.40919567  0.49045203  0.85016633    -0.77700
C279        C  0.39530287  0.49350438  0.83236681     0.83100
N280        N  0.36673906  0.00151118  0.83454336    -0.77600
C281        C  0.37855059  0.02731257  0.84695078     0.83200
N282        N  0.39649156  0.02813015  0.86311925    -0.79400
C283        C  0.19449895  0.99531672  0.77828598     0.80600
N284        N  0.19403121  0.48361197  0.75821331    -0.77700
C285        C  0.17123830  0.45378520  0.75575105     0.83100
N286        N  0.14512570  0.44443477  0.76672499    -0.77600
C287        C  0.14156016  0.46457687  0.78037756     0.83200
N288        N  0.16458321  0.49466759  0.78284200    -0.79400
C289        C  0.98903859  0.35572282  0.84154854     0.80600
N290        N  0.01204140  0.37490808  0.82796574    -0.77700
C291        C  0.03525368  0.40211015  0.83487830     0.83100
N292        N  0.03469538  0.41043583  0.85555953    -0.77600
C293        C  0.01141660  0.39147835  0.86915942     0.83200
N294        N  0.98873806  0.36406933  0.86216906    -0.79400
C295        C  0.16371283  0.16184645  0.84892197     0.80600
N296        N  0.15055455  0.17597548  0.83710803    -0.77700
C297        C  0.12500076  0.17560512  0.84423327     0.83100
N298        N  0.11239472  0.16054149  0.86342554    -0.77600
C299        C  0.12537153  0.14628603  0.87542485     0.83200
N300        N  0.15102379  0.14681717  0.86813751    -0.79400
C301        C  0.01576661  0.22103001  0.78202013     0.80600
N302        N  0.02597756  0.23357837  0.76183664    -0.77700
C303        C  0.05384086  0.23960527  0.75514918     0.83100
N304        N  0.07124114  0.23289021  0.76852969    -0.77600
C305        C  0.06107536  0.22040950  0.78867269     0.83200
N306        N  0.03342112  0.21475396  0.79522825    -0.79400
Zr307      Zr  0.28190564  0.16654251  0.79800017     2.17500
O308        O  0.25610901  0.16167916  0.76463820    -0.50900
O309        O  0.24218135  0.16157628  0.82262278    -0.74100
O310        O  0.24479608  0.11003842  0.79271529    -0.80900
O311        O  0.32179741  0.25729773  0.79546564    -0.82700
O312        O  0.26633097  0.07843179  0.80143964    -0.78300
O313        O  0.27927720  0.21499915  0.78470818    -0.89900
O314        O  0.25581293  0.15814204  0.85672508    -0.75900
O315        O  0.28491994  0.13445857  0.82715449    -0.85400
O316        O  0.30490884  0.20210766  0.82648346    -0.85100
O317        O  0.31175929  0.14289101  0.78449920    -0.71800
O318        O  0.33060095  0.20557916  0.78459328    -0.84000
Zr319      Zr  0.38596772  0.18440188  0.82989706     2.26400
Zr320      Zr  0.31541699  0.11178057  0.81428881     2.06300
Zr321      Zr  0.35372060  0.24005259  0.81349683     2.10000
Zr322      Zr  0.30762091  0.16978434  0.85544497     1.78800
O323        O  0.38241684  0.28493633  0.78820596    -0.92800
O324        O  0.28334996  0.12113163  0.87842507    -0.40600
O325        O  0.35660556  0.20859055  0.84309882    -0.77200
O326        O  0.33748580  0.14561648  0.84363317    -0.95900
O327        O  0.36385179  0.14975087  0.80102125    -0.89200
O328        O  0.38350436  0.21685313  0.80082184    -0.92000
C329        C  0.23723441  0.15795908  0.84303920     1.01700
C330        C  0.29668455  0.24539840  0.78626840     1.14600
C331        C  0.24452341  0.08245797  0.79472500     1.05400
O332        O  0.28802483  0.06575745  0.83902502    -0.94200
O333        O  0.34864498  0.09441602  0.83069296    -0.91700
O334        O  0.39255180  0.13712779  0.83857093    -0.83100
C335        C  0.37508838  0.10673225  0.83790535     1.12100
O336        O  0.33936400  0.18029391  0.73731174    -0.96200
Zr337      Zr  0.36082626  0.18225470  0.77222901     1.88900
O338        O  0.42754415  0.19552994  0.80514088    -0.72800
O339        O  0.32210299  0.07823721  0.78781822    -0.52100
O340        O  0.36081902  0.13821328  0.75239990    -0.96800
O341        O  0.38654009  0.23192349  0.75020366    -0.54000
O342        O  0.41302592  0.19539433  0.77083119    -0.73300
C343        C  0.43250090  0.19880963  0.78469907     0.99000
O344        O  0.40841488  0.18553062  0.86441699    -0.62200
O345        O  0.34845067  0.27440810  0.84003155    -0.57000
O346        O  0.42049954  0.23874444  0.83985754    -0.93600
O347        O  0.40293136  0.27246249  0.82725702    -0.92100
O348        O  0.30666326  0.21269664  0.87603299    -0.92400
O349        O  0.33112160  0.17692295  0.88993661    -0.91200
C350        C  0.42238611  0.26678505  0.83669431     1.17800
H351        H  0.29369065  0.21310492  0.83066950     0.33800
H352        H  0.33941176  0.13326090  0.85556781     0.44600
H353        H  0.40304073  0.23377968  0.79648793     0.38200
H354        H  0.30183276  0.12904607  0.77289671     0.34700
H355        H  0.27311629  0.12669539  0.88998301     0.26400
H356        H  0.31113242  0.05602896  0.79412393     0.32400
H357        H  0.37647582  0.13413112  0.75888553     0.38300
H358        H  0.28928348  0.20166191  0.88613715     0.32700
H359        H  0.36188353  0.29667555  0.83461013     0.31600
H360        H  0.38446332  0.30427797  0.79555290     0.33300
H361        H  0.40374393  0.24645846  0.75856056     0.32300
H362        H  0.35072328  0.17799538  0.88660255     0.36300
H363        H  0.40665775  0.20251904  0.87245082     0.29000
H364        H  0.23462615  0.15105771  0.76879683     0.33200
H365        H  0.35431122  0.18074986  0.72668959     0.36100
H366        H  0.32815211  0.27196178  0.83828870     0.28700
H367        H  0.39432713  0.16538080  0.87231014     0.41600
H368        H  0.29450288  0.07414927  0.85342807     0.31600
H369        H  0.26699621  0.10560858  0.86983526     0.39200
H370        H  0.37300929  0.24177847  0.75052658     0.31100
H371        H  0.31015275  0.07859305  0.77554424     0.31200
H372        H  0.25904130  0.14545724  0.75652499     0.31400
Zr373      Zr  0.02476711  0.00734628  0.93549737     2.17500
O374        O  0.04974835  0.01526990  0.90037739    -0.50900
O375        O  0.98537616  0.00807756  0.91366308    -0.74100
O376        O  0.02091476  0.46391360  0.91924477    -0.80900
O377        O  0.07370190  0.09765446  0.94462745    -0.82700
O378        O  0.99939154  0.42109422  0.94308187    -0.78300
O379        O  0.06207196  0.05886704  0.92014347    -0.89900
O380        O  0.43955393  0.99930400  0.93662247    -0.75900
O381        O  0.98621042  0.47627040  0.95352548    -0.85400
O382        O  0.00787992  0.04034431  0.95338568    -0.85100
O383        O  0.04381203  0.47891536  0.96106671    -0.71800
O384        O  0.06346584  0.03833015  0.95951844    -0.84000
Zr385      Zr  0.01258852  0.00208901  0.02024109     2.26400
Zr386      Zr  0.99652553  0.44259388  0.97794123     2.06300
Zr387      Zr  0.04597366  0.07074086  0.97782747     2.10000
Zr388      Zr  0.45548813  0.99882219  0.97315717     1.78800
O389        O  0.09452266  0.11517830  0.98514820    -0.92800
O390        O  0.41489117  0.46021703  0.97203741    -0.40600
O391        O  0.00026209  0.03484309  0.99645661    -0.77200
O392        O  0.47327494  0.47068580  0.99820609    -0.95900
O393        O  0.03328865  0.47213144  0.00326104    -0.89200
O394        O  0.05816806  0.03869306  0.00220171    -0.92000
C395        C  0.45157421  0.00196075  0.91793318     1.01700
C396        C  0.07611266  0.08805741  0.92594991     1.14600
C397        C  0.00933291  0.43380994  0.92423643     1.05400
O398        O  0.43788847  0.40066887  0.97438601    -0.94200
O399        O  0.47043265  0.40970467  0.01476886    -0.89900
O400        O  0.48442886  0.44733441  0.04034202    -0.83100
C401        C  0.47134509  0.41824865  0.03429150     1.12100
O402        O  0.11089357  0.01053277  0.95603173    -0.96200
Zr403      Zr  0.07490143  0.00587168  0.98412321     1.88900
O404        O  0.04943900  0.99800005  0.04300930    -0.72800
O405        O  0.01253707  0.40168549  0.98446928    -0.52100
O406        O  0.09006154  0.46337283  0.98943860    -0.96800
O407        O  0.12348753  0.05239040  0.98812084    -0.54000
O408        O  0.08627897  0.99919977  0.02106444    -0.73300
C409        C  0.07395527  0.99679992  0.03961324     0.99000
O410        O  0.47216992  0.99562156  0.04928082    -0.62200
O411        O  0.02508180  0.10688917  0.96916711    -0.57000
O412        O  0.02833484  0.05243901  0.03803508    -0.93600
O413        O  0.04478690  0.09315368  0.01247010    -0.92100
O414        O  0.44438649  0.04391567  0.96951524    -0.92400
O415        O  0.42226347  0.99944109  0.00160527    -0.91200
C416        C  0.03807489  0.08203112  0.03193535     1.17800
H417        H  0.00486426  0.05455637  0.94339301     0.33800
H418        H  0.45486868  0.45716630  0.00611282     0.44600
H419        H  0.07268349  0.05205920  0.01221244     0.38200
H420        H  0.05181043  0.46716604  0.95307867     0.34700
H421        H  0.40345765  0.46869160  0.96368794     0.26400
H422        H  0.99787891  0.38246081  0.97722083     0.32400
H423        H  0.10850261  0.47106509  0.99765195     0.38300
H424        H  0.42375940  0.03437004  0.96438733     0.32700
H425        H  0.01194426  0.10473699  0.98169757     0.31600
H426        H  0.09308038  0.13487095  0.98087745     0.33300
H427        H  0.12368235  0.05836227  0.00322985     0.32300
H428        H  0.43218869  0.49482429  0.01329441     0.36300
H429        H  0.46899909  0.01464733  0.04643958     0.29000
H430        H  0.03400090  0.00245906  0.89036273     0.33200
H431        H  0.12700590  0.00838891  0.96345663     0.36100
H432        H  0.04202689  0.12881121  0.96994671     0.28700
H433        H  0.45654710  0.47950056  0.04619497     0.41600
H434        H  0.43549358  0.40170699  0.95872170     0.31600
H435        H  0.41723380  0.44505153  0.96242178     0.39200
H436        H  0.12250023  0.07003494  0.97969966     0.31100
H437        H  0.03125168  0.40921236  0.97576514     0.31200
H438        H  0.07586906  0.50486209  0.91097846     0.31400
Zr439      Zr  0.17565533  0.33083735  0.68692827     2.17500
O440        O  0.17299723  0.29127880  0.71421931    -0.50900
O441        O  0.17655098  0.37093497  0.71147177    -0.74100
O442        O  0.22315231  0.34669874  0.70317967    -0.80900
O443        O  0.09109846  0.28511524  0.68183618    -0.82700
O444        O  0.26026095  0.37149912  0.67765801    -0.78300
O445        O  0.12820646  0.29847245  0.70560271    -0.89900
O446        O  0.17555098  0.41134901  0.69116472    -0.75900
O447        O  0.20750177  0.38162072  0.66969713    -0.85400
O448        O  0.14345560  0.34918408  0.67153283    -0.85100
O449        O  0.20547015  0.32021591  0.66105988    -0.71800
O450        O  0.14616619  0.29016165  0.66255565    -0.84000
Zr451      Zr  0.17547635  0.35022671  0.60302886     2.26400
Zr452      Zr  0.23687413  0.37154280  0.64349275     2.06300
Zr453      Zr  0.11445410  0.30928281  0.64686856     2.10000
Zr454      Zr  0.17524259  0.39943025  0.65380738     1.78800
O455        O  0.07954996  0.25352049  0.64013543    -0.92800
O456        O  0.21700740  0.45283363  0.65776666    -0.40600
O457        O  0.14567435  0.36024026  0.62897661    -0.77200
O458        O  0.20527901  0.39084433  0.62734555    -0.95900
O459        O  0.20769176  0.33203855  0.61861068    -0.89200
O460        O  0.14343597  0.29926856  0.62020658    -0.92000
C461        C  0.17618919  0.39802341  0.70912474     1.01700
C462        C  0.10073563  0.28462699  0.70067121     1.14600
C463        C  0.25061764  0.36090915  0.69696978     1.05400
O464        O  0.27394069  0.42700857  0.64868190    -0.94200
O465        O  0.25999098  0.39587934  0.60829804    -0.89900
O466        O  0.22316891  0.38102708  0.58411678    -0.83100
C467        C  0.25054023  0.39576877  0.58926499     1.12100
O468        O  0.17127973  0.24011697  0.66232229    -0.96200
Zr469      Zr  0.17592953  0.28139102  0.63573489     1.88900
O470        O  0.17695819  0.31200930  0.57806750    -0.72800
O471        O  0.27373337  0.35327111  0.63598435    -0.52100
O472        O  0.22001687  0.27333639  0.63397877    -0.96800
O473        O  0.13500007  0.22865188  0.62840554    -0.54000
O474        O  0.18248440  0.27383033  0.59785870    -0.73300
C475        C  0.18119114  0.28715884  0.57995689     0.99000
O476        O  0.17619120  0.39036358  0.57683583    -0.62200
O477        O  0.07466805  0.32352021  0.65377301    -0.57000
O478        O  0.12741706  0.33589863  0.58778604    -0.93600
O479        O  0.09152813  0.31533106  0.61450651    -0.92100
O480        O  0.13011282  0.40524400  0.65757616    -0.92400
O481        O  0.17601199  0.44088522  0.62912578    -0.91200
C482        C  0.10054530  0.32505018  0.59509547     1.17800
H483        H  0.13077084  0.35157062  0.68229576     0.33800
H484        H  0.21718054  0.41103975  0.61952524     0.44600
H485        H  0.13071217  0.28422998  0.61001863     0.38200
H486        H  0.21745342  0.31213603  0.66830329     0.34700
H487        H  0.20865910  0.46469940  0.66601456     0.26400
H488        H  0.29258172  0.37036878  0.64133119     0.32400
H489        H  0.21436114  0.25432397  0.62507642     0.38300
H490        H  0.13342880  0.41913322  0.66996382     0.32700
H491        H  0.05635712  0.30262659  0.65575330     0.31600
H492        H  0.06163801  0.25433144  0.63479890     0.33300
H493        H  0.12951771  0.23046467  0.61347837     0.32300
H494        H  0.17618700  0.43268819  0.61470186     0.36300
H495        H  0.15957436  0.39463306  0.58131554     0.29000
H496        H  0.18069825  0.30342362  0.72737852     0.33200
H497        H  0.17342181  0.22341729  0.65420694     0.36100
H498        H  0.07832064  0.33269433  0.66817602     0.28700
H499        H  0.19413370  0.41073894  0.57975081     0.41600
H500        H  0.26561123  0.44023823  0.64189218     0.31600
H501        H  0.23018515  0.44940065  0.66786965     0.39200
H502        H  0.11797596  0.22700044  0.63732310     0.31100
H503        H  0.26835643  0.33459144  0.64606030     0.31200
H504        H  0.18818940  0.28481263  0.70966883     0.31400
C505        C  0.46277243  0.20745180  0.77629187    -0.16000
C506        C  0.48370290  0.20751904  0.78909733    -0.31200
H507        H  0.46771473  0.21312727  0.75923061     0.13000
H508        H  0.47827954  0.20059789  0.80599355     0.13600
C509        C  0.06567035  0.25398319  0.73422330    -0.12900
C510        C  0.07955689  0.26730992  0.71787803    -0.14400
C511        C  0.19125625  0.16277583  0.84018778    -0.16000
C512        C  0.20845877  0.15396515  0.85174226    -0.31200
H513        H  0.19827093  0.17251119  0.82388366     0.13000
H514        H  0.20229643  0.14567929  0.86837831     0.13600
C515        C  0.12108487  0.20136958  0.80950190    -0.13000
C516        C  0.11021984  0.18977914  0.83055890     0.09200
C517        C  0.08433390  0.19053845  0.83806123    -0.13000
C518        C  0.06898174  0.20139467  0.82459388    -0.13000
C519        C  0.07911700  0.21175525  0.80327615     0.09200
C520        C  0.10566920  0.21222559  0.79598711    -0.13000
H521        H  0.14108594  0.20128111  0.80322455     0.13200
H522        H  0.07552644  0.18213026  0.85423124     0.13200
H523        H  0.04877446  0.20104274  0.83084062     0.13200
H524        H  0.11413165  0.22015396  0.77969237     0.13200
C525        C  0.09580183  0.11140969  0.91001496    -0.12900
C526        C  0.11049760  0.12843540  0.89492069    -0.14400
C527        C  0.46177264  0.32287333  0.83415905    -0.16000
C528        C  0.44841616  0.29441394  0.84505058    -0.31200
H529        H  0.45503704  0.32514138  0.81803175     0.13000
H530        H  0.45693267  0.29129865  0.86031452     0.13600
C531        C  0.00956914  0.40173693  0.89038822    -0.12900
C532        C  0.00823075  0.41358440  0.90704047    -0.14400
C533        C  0.21979645  0.02681375  0.78284413    -0.16000
C534        C  0.21739079  0.05279568  0.78918430    -0.31200
H535        H  0.24186293  0.02891165  0.78006143     0.13000
H536        H  0.19573893  0.05219228  0.79022677     0.13600
C537        C  0.11246965  0.46389187  0.81371206    -0.13000
C538        C  0.11338049  0.45228350  0.79332989     0.09200
C539        C  0.08756392  0.42625485  0.78608219    -0.13000
C540        C  0.06191325  0.41107055  0.79924735    -0.13000
C541        C  0.06139734  0.42126959  0.82015843     0.09200
C542        C  0.08672933  0.44843387  0.82705533    -0.13000
H543        H  0.13206356  0.48386989  0.81973878     0.13200
H544        H  0.08742419  0.41695822  0.77035855     0.13200
H545        H  0.04281085  0.39052928  0.79321693     0.13200
H546        H  0.08705343  0.45708108  0.84300867     0.13200
C547        C  0.17448763  0.43223490  0.74130126    -0.12900
C548        C  0.17595859  0.41510577  0.72777648    -0.14400
C549        C  0.38589258  0.08396612  0.84569230    -0.16000
C550        C  0.36935331  0.05228368  0.84277786    -0.31200
H551        H  0.40765709  0.09308510  0.85268504     0.13000
H552        H  0.34834500  0.04388667  0.83473179     0.13600
C553        C  0.43479251  0.00263396  0.89956788    -0.12900
C554        C  0.42028899  0.00283828  0.88436800    -0.14400
C555        C  0.29912550  0.29819486  0.78607565    -0.16000
C556        C  0.28851020  0.26949254  0.77682658    -0.31200
H557        H  0.30929832  0.30060611  0.80158137     0.13000
H558        H  0.27714194  0.26521939  0.76176263     0.13600
C559        C  0.35800875  0.40928381  0.81078674    -0.13000
C560        C  0.34575765  0.41382828  0.79165916     0.09200
C561        C  0.35159662  0.44522531  0.78540755    -0.13000
C562        C  0.36836301  0.47115786  0.79834597    -0.13000
C563        C  0.37980925  0.46635716  0.81780614     0.09200
C564        C  0.37480286  0.43514422  0.82363740    -0.13000
H565        H  0.35429099  0.38551824  0.81612420     0.13200
H566        H  0.34275555  0.44969564  0.77076571     0.13200
H567        H  0.37194866  0.49496130  0.79322364     0.13200
H568        H  0.38321253  0.43048739  0.83843012     0.13200
C569        C  0.27161048  0.36442146  0.71326159    -0.12900
C570        C  0.28520195  0.36420488  0.72896079    -0.14400
C571        C  0.02311615  0.16047035  0.42933928    -0.16000
C572        C  0.04469297  0.15885852  0.44066665    -0.31200
H573        H  0.00616252  0.13857051  0.42262653     0.13000
H574        H  0.06307636  0.18046699  0.44645601     0.13600
C575        C  0.02268665  0.38619450  0.52773745    -0.16000
C576        C  0.00113708  0.38787827  0.51646129    -0.31200
H577        H  0.04041376  0.40810681  0.53383273     0.13000
H578        H  0.49065359  0.37946000  0.51609057     0.13600
C579        C  0.03475364  0.26860815  0.49723342    -0.13000
C580        C  0.02560741  0.29271200  0.49608689     0.09200
C581        C  0.01513886  0.29845709  0.47661515    -0.13000
C582        C  0.01338547  0.28020072  0.45885081    -0.13000
C583        C  0.02199995  0.25569438  0.46011566     0.09200
C584        C  0.03304631  0.25038971  0.47945699    -0.13000
H585        H  0.54883171  0.27180703  0.51320272     0.13200
H586        H  0.00823876  0.31703783  0.47506385     0.13200
H587        H  0.00485149  0.28504777  0.44418167     0.13200
H588        H  0.03975427  0.23166149  0.48105407     0.13200
C589        C  0.06300549  0.32580137  0.56688966    -0.12900
C590        C  0.07909710  0.32448887  0.58035417    -0.14400
C591        C  0.41119560  0.37605344  0.43926864    -0.16000
C592        C  0.41508240  0.39312035  0.45703034    -0.31200
H593        H  0.42800510  0.38576999  0.42633436     0.13000
H594        H  0.39898848  0.38278652  0.47037518     0.13600
C595        C  0.15291964  0.17349904  0.49472029    -0.16000
C596        C  0.12798715  0.15480459  0.50650313    -0.31200
H597        H  0.15649510  0.16554422  0.47924832     0.13000
H598        H  0.12499608  0.16218816  0.52233468     0.13600
C599        C  0.25943600  0.24468596  0.46851107    -0.13000
C600        C  0.25477584  0.26195697  0.48492407     0.09200
C601        C  0.27798541  0.29274413  0.48908512    -0.13000
C602        C  0.30500488  0.30589916  0.47692349    -0.13000
C603        C  0.30939452  0.28849837  0.46039719     0.09200
C604        C  0.28620503  0.25766391  0.45651555    -0.13000
H605        H  0.24231912  0.22088324  0.46481589     0.13200
H606        H  0.27521169  0.30676051  0.50160471     0.13200
H607        H  0.32232039  0.32971992  0.48036395     0.13200
H608        H  0.28854710  0.24333544  0.44402903     0.13200
C609        C  0.18539950  0.27350306  0.56055738    -0.12900
C610        C  0.18971550  0.26196894  0.54458765    -0.14400
C611        C  0.16782846  0.03675414  0.45301666    -0.16000
C612        C  0.15415403  0.05385693  0.44597546    -0.31200
H613        H  0.15683200  0.01806867  0.46550870     0.13000
H614        H  0.16568467  0.07363656  0.43427428     0.13600
C615        C  0.37711081  0.47697798  0.51101452    -0.16000
C616        C  0.39651044  0.49995584  0.49721847    -0.31200
H617        H  0.38428310  0.46177874  0.51996242     0.13000
H618        H  0.38943020  0.51576530  0.48892173     0.13600
C619        C  0.25843637  0.99044897  0.49537772    -0.13000
C620        C  0.28967713  0.49498428  0.49326268     0.09200
C621        C  0.30367684  0.51410066  0.47461581    -0.13000
C622        C  0.28499757  0.02489398  0.45710812    -0.13000
C623        C  0.25639369  0.02044446  0.46333698     0.09200
C624        C  0.24346319  0.00305365  0.48271241    -0.13000
H625        H  0.24741787  0.97719377  0.51010693     0.13200
H626        H  0.32622608  0.51939641  0.47001198     0.13200
H627        H  0.29580640  0.03819194  0.44234477     0.13200
H628        H  0.22159187  0.99906226  0.48819179     0.13200
C629        C  0.27179606  0.41430432  0.57225114    -0.12900
C630        C  0.28699076  0.43018574  0.55691286    -0.14400
C631        C  0.47610603  0.21820507  0.39543257    -0.12900
C632        C  0.45784132  0.21330874  0.38204033    -0.14400
C633        C  0.36359873  0.25974602  0.38500235    -0.12900
C634        C  0.36456394  0.27700568  0.39940807    -0.14400
C635        C  0.26517560  0.09660726  0.38337372    -0.12900
C636        C  0.25122205  0.08126048  0.39935550    -0.14400
C637        C  0.36457737  0.34082859  0.12212427    -0.16000
C638        C  0.34653899  0.34715484  0.10952530    -0.31200
H639        H  0.35775868  0.33264001  0.13870243     0.13000
H640        H  0.35317304  0.35447987  0.09280606     0.13600
C641        C  0.44481462  0.37718834  0.06698144    -0.12900
C642        C  0.45641028  0.39385343  0.05100143    -0.14400
C643        C  0.07401099  0.29883201  0.18316476    -0.16000
C644        C  0.08933320  0.31322704  0.16482017    -0.31200
H645        H  0.08458811  0.29162457  0.19566135     0.13000
H646        H  0.07821701  0.31919140  0.15206581     0.13600
C647        C  0.49832781  0.32189923  0.14258313    -0.13000
C648        C  0.48513387  0.30551927  0.16219435     0.09200
C649        C  0.45638845  0.30080413  0.16795171    -0.13000
C650        C  0.44109458  0.31176542  0.15448566    -0.13000
C651        C  0.45394049  0.32769368  0.13473552     0.09200
C652        C  0.48286151  0.33281488  0.12896997    -0.13000
H653        H  0.52044114  0.32601656  0.13766134     0.13200
H654        H  0.44547391  0.28850519  0.18295941     0.13200
H655        H  0.41896545  0.30741372  0.15956087     0.13200
H656        H  0.49352408  0.34513973  0.11391094     0.13200
C657        C  0.46479629  0.22902722  0.24121002    -0.12900
C658        C  0.48196157  0.24376307  0.22655369    -0.14400
C659        C  0.33771597  0.44648526  0.17481685    -0.16000
C660        C  0.33727779  0.47336732  0.18149806    -0.31200
H661        H  0.35823658  0.44455923  0.17497510     0.13000
H662        H  0.31604948  0.47374298  0.18294050     0.13600
C663        C  0.37422849  0.08300593  0.23811044    -0.12900
C664        C  0.37753942  0.06817835  0.22366588    -0.14400
C665        C  0.10127151  0.22626471  0.10531835    -0.16000
C666        C  0.08510480  0.19964800  0.11776802    -0.31200
H667        H  0.09403962  0.22860980  0.08938716     0.13000
H668        H  0.09107543  0.19877261  0.13432240     0.13600
C669        C  0.46366714  0.07290048  0.12761594    -0.13000
C670        C  0.48711585  0.10257848  0.13345144     0.09200
C671        C  0.48547424  0.11396032  0.15376732    -0.13000
C672        C  0.46090772  0.09650270  0.16772075    -0.13000
C673        C  0.43725571  0.06706673  0.16182708     0.09200
C674        C  0.43907322  0.05532681  0.14164958    -0.13000
H675        H  0.46414552  0.06330577  0.11210938     0.13200
H676        H  0.50304879  0.13662187  0.15887028     0.13200
H677        H  0.46039207  0.10633455  0.18312966     0.13200
H678        H  0.42125004  0.03285742  0.13651354     0.13200
C679        C  0.04072129  0.11883825  0.06382082    -0.12900
C680        C  0.04088424  0.10399119  0.04838059    -0.14400
C681        C  0.25212740  0.22908284  0.17473720    -0.16000
C682        C  0.23651582  0.19907064  0.16764490    -0.31200
H683        H  0.26795831  0.23395680  0.18735893     0.13000
H684        H  0.22189704  0.19535279  0.15430816     0.13600
C685        C  0.25926527  0.13663925  0.22248132    -0.12900
C686        C  0.27228423  0.13666004  0.23859858    -0.14400
C687        C  0.15692809  0.43695944  0.10490082    -0.16000
C688        C  0.18289931  0.44114215  0.11274908    -0.31200
H689        H  0.14111424  0.41389201  0.09889275     0.13000
H690        H  0.19873865  0.46495776  0.11776746     0.13600
C691        C  0.16567158  0.06125579  0.13074050    -0.13000
C692        C  0.16905303  0.03327077  0.13215753     0.09200
C693        C  0.18792878  0.03113997  0.14777838    -0.13000
C694        C  0.20335067  0.05667030  0.16139608    -0.13000
C695        C  0.20041306  0.08493999  0.15951723     0.09200
C696        C  0.18113424  0.08667705  0.14416399    -0.13000
H697        H  0.15135596  0.06381316  0.11902017     0.13200
H698        H  0.19104338  0.00987218  0.14936302     0.13200
H699        H  0.21806596  0.05460351  0.17298248     0.13200
H700        H  0.17805618  0.10794651  0.14234776     0.13200
C701        C  0.10540047  0.49424889  0.07537531    -0.12900
C702        C  0.08881549  0.99207024  0.05785553    -0.14400
C703        C  0.12104201  0.98474711  0.08849575     0.80600
N704        N  0.12663107  0.95900771  0.08884770    -0.77700
C705        C  0.14584434  0.95734085  0.10315480     0.83100
N706        N  0.15902806  0.98129503  0.11716288    -0.77600
C707        C  0.15476006  0.51143462  0.12095263     0.83200
N708        N  0.13606533  0.51356862  0.10636385    -0.79400
C709        C  0.24642429  0.64082118  0.20744482     0.80600
N710        N  0.22967115  0.61354973  0.19670856    -0.77700
C711        C  0.21759993  0.61555799  0.17778934     0.83100
N712        N  0.22284538  0.64480460  0.16973787    -0.77600
C713        C  0.23978404  0.67209754  0.17997347     0.83200
N714        N  0.25156810  0.67022558  0.19905338    -0.79400
C715        C  0.06143340  0.66631837  0.11520877     0.80600
N716        N  0.03849274  0.64760315  0.12917637    -0.77700
C717        C  0.51689440  0.61604951  0.12491214     0.83100
N718        N  0.51737901  0.60626624  0.10463681    -0.77600
C719        C  0.03920826  0.62863970  0.08856827     0.83200
N720        N  0.06170571  0.65661685  0.09494196    -0.79400
C721        C  0.36361028  0.50270227  0.18805003     0.80600
N722        N  0.39006283  0.51539809  0.17660261    -0.77700
C723        C  0.41282124  0.54462626  0.18157252     0.83100
N724        N  0.40870040  0.56072043  0.19805972    -0.77600
C725        C  0.38243575  0.54824553  0.20937252     0.83200
N726        N  0.35983773  0.51957445  0.20411430    -0.79400
C727        C  0.04318487  0.78599815  0.18425104     0.80600
N728        N  0.02760113  0.76717518  0.20166340    -0.77700
C729        C  0.49908275  0.75717211  0.20689868     0.83100
N730        N  0.48495912  0.76720426  0.19275155    -0.77600
C731        C  0.49958769  0.78554580  0.17504120     0.83200
N732        N  0.02927056  0.79684225  0.17015748    -0.79400
C733        C  0.39508007  0.84111691  0.11355230     0.80600
N734        N  0.40992265  0.82924058  0.12570776    -0.77700
C735        C  0.43621214  0.83108694  0.11850691     0.83100
N736        N  0.44770756  0.84526156  0.09884454    -0.77600
C737        C  0.43289889  0.85709714  0.08652682     0.83200
N738        N  0.40676048  0.85510075  0.09395120    -0.79400
Zr739      Zr  0.17495582  0.83067388  0.11813201     2.17500
O740        O  0.15955566  0.83305153  0.08165162    -0.50900
O741        O  0.13063390  0.82216464  0.13838261    -0.74100
O742        O  0.13690719  0.77693986  0.10935943    -0.80900
O743        O  0.21429707  0.92040702  0.12410947    -0.82700
O744        O  0.14917229  0.74118561  0.12602363    -0.78300
O745        O  0.17185782  0.88059794  0.11101628    -0.89900
O746        O  0.13749017  0.81437975  0.17355850    -0.75900
O747        O  0.17086164  0.79489848  0.14725595    -0.85400
O748        O  0.19390508  0.86217935  0.14882002    -0.85100
O749        O  0.20358303  0.80433261  0.10702763    -0.71800
O750        O  0.22588325  0.86800512  0.10861147    -0.84000
Zr751      Zr  0.27114299  0.83847426  0.15832531     2.26400
Zr752      Zr  0.20047199  0.77005059  0.13706307     2.06300
Zr753      Zr  0.24464960  0.89861276  0.13985682     2.10000
Zr754      Zr  0.18963703  0.82634233  0.17762225     1.78800
O755        O  0.27561677  0.94494948  0.11627451    -0.92800
O756        O  0.16130478  0.77542162  0.19777008    -0.40600
O757        O  0.24123671  0.86351878  0.16938928    -0.77200
O758        O  0.21975311  0.80131110  0.16805647    -0.95900
O759        O  0.25144066  0.80612124  0.12797265    -0.89200
O760        O  0.27422785  0.87378356  0.12911275    -0.92000
C761        C  0.12152285  0.81546129  0.15804335     1.01700
C762        C  0.18909337  0.91022052  0.11517359     1.14600
C763        C  0.13140187  0.74822961  0.11538191     1.05400
O764        O  0.17064940  0.71931164  0.15702327    -0.94200
O765        O  0.22863309  0.74891017  0.15661304    -0.89900
O766        O  0.27084384  0.78801709  0.17019386    -0.83100
C767        C  0.25245844  0.75829195  0.16728794     1.12100
O768        O  0.23928758  0.84250501  0.06230765    -0.96200
Zr769      Zr  0.25488554  0.84162037  0.09894130     1.88900
O770        O  0.31336404  0.84106512  0.13714794    -0.72800
O771        O  0.20791703  0.74056377  0.10805358    -0.52100
O772        O  0.25433775  0.79689521  0.07958965    -0.96800
O773        O  0.28627789  0.89127291  0.07818151    -0.54000
O774        O  0.30487347  0.84779685  0.10216373    -0.73300
C775        C  0.32092890  0.84546226  0.11705305     0.99000
O776        O  0.28921208  0.84115033  0.19458003    -0.62200
O777        O  0.23930318  0.93045155  0.16821843    -0.57000
O778        O  0.31003650  0.89308474  0.16592366    -0.93600
O779        O  0.29187645  0.92770825  0.15665727    -0.92100
O780        O  0.18526397  0.86809892  0.19738622    -0.92400
O781        O  0.20582018  0.82923840  0.21435795    -0.91200
C782        C  0.31194207  0.92145835  0.16442451     1.17800
H783        H  0.18276182  0.87348532  0.15243799     0.33800
H784        H  0.21890800  0.78758233  0.18013398     0.44600
H785        H  0.29458409  0.88980286  0.12594872     0.38200
H786        H  0.19487095  0.79160156  0.09471342     0.34700
H787        H  0.14828098  0.77950826  0.20787889     0.26400
H788        H  0.22101375  0.73213245  0.11398652     0.32400
H789        H  0.27473082  0.80519347  0.07324994     0.38300
H790        H  0.16523530  0.85709873  0.20452714     0.32700
H791        H  0.25143654  0.95312898  0.16304398     0.31600
H792        H  0.27881661  0.96389356  0.12461779     0.33300
H793        H  0.30170665  0.88725562  0.07095522     0.32300
H794        H  0.21874044  0.81863255  0.21432963     0.36300
H795        H  0.28759671  0.85940385  0.20095547     0.29000
H796        H  0.13759383  0.82387214  0.08282997     0.33200
H797        H  0.25503207  0.84203258  0.05293402     0.36100
H798        H  0.21845112  0.92672170  0.16765174     0.28700
H799        H  0.27357114  0.82195893  0.20247753     0.41600
H800        H  0.17153119  0.72529141  0.17218922     0.31600
H801        H  0.14749809  0.76075409  0.18732617     0.39200
H802        H  0.29720817  0.90745183  0.08889699     0.31100
H803        H  0.18836231  0.72123628  0.10689098     0.31200
H804        H  0.16304575  0.81682523  0.07399580     0.31400
Zr805      Zr  0.36611421  0.66918369  0.35552813     2.17500
O806        O  0.36718867  0.64002300  0.38817066    -0.50900
O807        O  0.36419539  0.71329699  0.37401243    -0.74100
O808        O  0.41471825  0.69422446  0.37159452    -0.80900
O809        O  0.28301672  0.61374841  0.35066251    -0.82700
O810        O  0.45103758  0.71512786  0.34524923    -0.78300
O811        O  0.31941505  0.63523899  0.37506436    -0.89900
O812        O  0.36490925  0.74958912  0.34882525    -0.75900
O813        O  0.39677079  0.71586334  0.33382083    -0.85400
O814        O  0.33274900  0.68146630  0.33565110    -0.85100
O815        O  0.39698927  0.65410621  0.33383798    -0.71800
O816        O  0.33791625  0.62266897  0.33489408    -0.84000
Zr817      Zr  0.36728441  0.66877228  0.27055195     2.26400
Zr818      Zr  0.42697345  0.70116299  0.31157344     2.06300
Zr819      Zr  0.30511409  0.63553916  0.31452014     2.10000
Zr820      Zr  0.36371433  0.72798762  0.31377336     1.78800
O821        O  0.27047696  0.57893801  0.31004757    -0.92800
O822        O  0.40354169  0.78339886  0.31201100    -0.40600
O823        O  0.33590127  0.68260690  0.29253623    -0.77200
O824        O  0.39522286  0.71537598  0.29099042    -0.95900
O825        O  0.39961608  0.65555942  0.29061303    -0.89200
O826        O  0.33574468  0.62157014  0.29189484    -0.92000
C827        C  0.36467513  0.73999636  0.36825500     1.01700
C828        C  0.29238863  0.61707850  0.36998730     1.14600
C829        C  0.44199237  0.70945863  0.36485990     1.05400
O830        O  0.46358331  0.75795730  0.30974451    -0.94200
O831        O  0.45206238  0.71533961  0.27665019    -0.89900
O832        O  0.41600677  0.69489247  0.25199727    -0.83100
C833        C  0.44328671  0.71032680  0.25737210     1.12100
O834        O  0.36851242  0.57587032  0.34296787    -0.96200
Zr835      Zr  0.36855301  0.60895935  0.31212872     1.88900
O836        O  0.36873587  0.62498225  0.25159708    -0.72800
O837        O  0.46372779  0.68141127  0.31188760    -0.52100
O838        O  0.41302234  0.60153633  0.31209231    -0.96800
O839        O  0.32681298  0.55468556  0.31194533    -0.54000
O840        O  0.37257075  0.59096012  0.27654858    -0.73300
C841        C  0.37171722  0.60015865  0.25715108     0.99000
O842        O  0.36893599  0.70181413  0.23903340    -0.62200
O843        O  0.26484096  0.64961105  0.31918693    -0.57000
O844        O  0.31998867  0.65102298  0.25363096    -0.93600
O845        O  0.28313246  0.63477683  0.27961305    -0.92100
O846        O  0.31723543  0.73137907  0.31452293    -0.92400
O847        O  0.36280082  0.76090290  0.28325988    -0.91200
C848        C  0.29285909  0.64110198  0.25993910     1.17800
H849        H  0.31958243  0.68544763  0.34505462     0.33800
H850        H  0.40699750  0.73373250  0.28146390     0.44600
H851        H  0.32351410  0.60410893  0.28292715     0.38200
H852        H  0.40947002  0.64884307  0.34290708     0.34700
H853        H  0.39429097  0.79635522  0.31757328     0.26400
H854        H  0.48313270  0.70100948  0.31286960     0.32400
H855        H  0.40684959  0.58028905  0.30579343     0.38300
H856        H  0.32060954  0.74886178  0.32437447     0.32700
H857        H  0.24644048  0.62867908  0.31987720     0.31600
H858        H  0.25182634  0.57546953  0.31760184     0.33300
H859        H  0.31757164  0.55321922  0.29791385     0.32300
H860        H  0.35484268  0.74567840  0.27152056     0.36300
H861        H  0.35284587  0.70779220  0.24154911     0.29000
H862        H  0.37405658  0.65613356  0.39945978     0.33200
H863        H  0.36831851  0.55641387  0.33701911     0.36100
H864        H  0.26664650  0.65752729  0.33390560     0.28700
H865        H  0.38733097  0.72252284  0.24006119     0.41600
H866        H  0.45453074  0.76859611  0.30079424     0.31600
H867        H  0.41734262  0.78409009  0.32324409     0.39200
H868        H  0.31208391  0.55478405  0.32253142     0.31100
H869        H  0.46066763  0.66984052  0.32594498     0.31200
H870        H  0.38370361  0.63466247  0.38577785     0.31400
C871        C  0.34273661  0.96980244  0.51032964     0.80600
N872        N  0.32994891  0.98398783  0.49766084    -0.77700
C873        C  0.30212847  0.98023671  0.50289650     0.83100
N874        N  0.28769302  0.96253537  0.52099193    -0.77600
C875        C  0.30032248  0.94854755  0.53357625     0.83200
N876        N  0.32764311  0.95205438  0.52813617    -0.79400
C877        C  0.20005699  0.54046064  0.44694949     0.80600
N878        N  0.21482415  0.52802834  0.45892904    -0.77700
C879        C  0.24305916  0.53377150  0.45327015     0.83100
N880        N  0.25632343  0.55192909  0.43507218    -0.77600
C881        C  0.24190188  0.56432099  0.42275726     0.83200
N882        N  0.21380341  0.55869959  0.42878141    -0.79400
C883        C  0.17321433  0.70606536  0.49719645     0.80600
N884        N  0.19917751  0.72159745  0.48556533    -0.77700
C885        C  0.22123786  0.75039838  0.49153701     0.83100
N886        N  0.21688387  0.76386258  0.50946572    -0.77600
C887        C  0.19076561  0.74859895  0.52117614     0.83200
N888        N  0.16907831  0.71968042  0.51507580    -0.79400
C889        C  0.38256633  0.84656643  0.43330533     0.80600
N890        N  0.35675278  0.83548451  0.44545169    -0.77700
C891        C  0.33335799  0.80605614  0.44188899     0.83100
N892        N  0.33629686  0.78787755  0.42635140    -0.77600
C893        C  0.36182995  0.79860807  0.41437785     0.83200
N894        N  0.38486018  0.82802477  0.41773923    -0.79400
C895        C  0.04668193  0.82888288  0.54671266     0.80600
N896        N  0.04185531  0.80882942  0.53042380    -0.77700
C897        C  0.02983482  0.81275980  0.51206792     0.83100
N898        N  0.02252501  0.83725016  0.51020509    -0.77600
C899        C  0.02739471  0.85755399  0.52660191     0.83200
N900        N  0.04018140  0.85371238  0.54461563    -0.79400
C901        C  0.99910193  0.71423115  0.40768493     0.80600
N902        N  0.00665811  0.69019394  0.40896568    -0.77700
C903        C  0.02250491  0.68798145  0.42558159     0.83100
N904        N  0.02968530  0.70937331  0.44157934    -0.77600
C905        C  0.02164383  0.73340767  0.44043765     0.83200
N906        N  0.00628730  0.73545887  0.42342241    -0.79400
Zr907      Zr  0.48063551  0.98000448  0.49569828     2.17500
O908        O  0.46136803  0.96482282  0.53253153    -0.50900
O909        O  0.44303649  0.93456356  0.47765731    -0.74100
O910        O  0.43386206  0.98442893  0.49814080    -0.80900
O911        O  0.03284265  0.94126848  0.49889603    -0.82700
O912        O  0.44357422  0.53114540  0.48077052    -0.78300
O913        O  0.48823316  0.93434177  0.50807777    -0.89900
O914        O  0.45623738  0.94152300  0.44214061    -0.75900
O915        O  0.47425231  0.00251260  0.46297061    -0.85400
O916        O  0.00674242  0.96613264  0.46699243    -0.85100
O917        O  0.50252631  0.53898209  0.50146337    -0.71800
O918        O  0.02543159  0.99674229  0.50693245    -0.84000
Zr919      Zr  0.06997057  0.56950924  0.45573109     2.26400
Zr920      Zr  0.49502594  0.55978494  0.46798346     2.06300
Zr921      Zr  0.05666210  0.99240611  0.47924771     2.10000
Zr922      Zr  0.00204087  0.99179701  0.43529975     1.78800
O923        O  0.09041312  0.98862397  0.50509250    -0.92800
O924        O  0.46599267  0.99821587  0.41333568    -0.40600
O925        O  0.05156481  0.51360197  0.44772237    -0.77200
O926        O  0.02012713  0.54335817  0.44211464    -0.95900
O927        O  0.03883675  0.57634034  0.48177386    -0.89200
O928        O  0.07383710  0.54461271  0.48838656    -0.92000
C929        C  0.43887614  0.92557807  0.45824646     1.01700
C930        C  0.00633275  0.92075077  0.50520178     1.14600
C931        C  0.42469633  0.00349762  0.48954552     1.05400
O932        O  0.46378006  0.56421958  0.44025733    -0.94200
O933        O  0.01571118  0.60347262  0.45192641    -0.89900
O934        O  0.06450514  0.61708760  0.44528528    -0.83100
C935        C  0.04230842  0.62325125  0.44536870     1.12100
O936        O  0.01962254  0.53008478  0.54976182    -0.96200
Zr937      Zr  0.04244679  0.55160547  0.51433984     1.88900
O938        O  0.10399628  0.61416672  0.47700458    -0.72800
O939        O  0.48737000  0.59560167  0.49208143    -0.52100
O940        O  0.02511414  0.58760730  0.52934701    -0.96800
O941        O  0.07804317  0.55064513  0.53970356    -0.54000
O942        O  0.08433964  0.60532704  0.51106949    -0.73300
C943        C  0.10369567  0.62264311  0.49643884     0.99000
O944        O  0.09128645  0.58856228  0.41966067    -0.62200
O945        O  0.06226464  0.95599257  0.45459475    -0.57000
O946        O  0.11540686  0.56388497  0.44982419    -0.93600
O947        O  0.10720968  0.51548211  0.46459151    -0.92100
O948        O  0.01628551  0.95383262  0.41948701    -0.92400
O949        O  0.02321739  0.00976321  0.39912991    -0.91200
C950        C  0.12381037  0.54241343  0.45431803     1.17800
H951        H  0.00050664  0.94371879  0.46443453     0.33800
H952        H  0.01977953  0.55421707  0.42883785     0.44600
H953        H  0.09418677  0.55406092  0.49291991     0.38200
H954        H  0.49092807  0.54201038  0.51277992     0.34700
H955        H  0.45749697  0.97848403  0.40492523     0.26400
H956        H  0.47775419  0.60575851  0.48325863     0.32400
H957        H  0.04041927  0.60055597  0.53959472     0.38300
H958        H  0.99873844  0.93921795  0.41144389     0.32700
H959        H  0.07706844  0.95062047  0.46121547     0.31600
H960        H  0.09794997  0.97480126  0.49839414     0.33300
H961        H  0.09788318  0.56349039  0.53255886     0.32300
H962        H  0.04128955  0.51795407  0.40098141     0.36300
H963        H  0.09306423  0.57026049  0.41351416     0.29000
H964        H  0.44007497  0.94912768  0.53127434     0.33200
H965        H  0.02907578  0.54817759  0.55951842     0.36100
H966        H  0.04330044  0.93569232  0.45599310     0.28700
H967        H  0.07511836  0.58961934  0.41158598     0.41600
H968        H  0.47289283  0.56240332  0.42654569     0.31600
H969        H  0.44950053  0.99547990  0.42330647     0.39200
H970        H  0.07492953  0.52818326  0.53980849     0.31100
H971        H  0.47167486  0.58146292  0.50270890     0.31200
H972        H  0.46116229  0.98429159  0.53809528     0.31400
C973        C  0.29372922  0.85529749  0.74523302     0.80600
N974        N  0.30785218  0.87943211  0.75893062    -0.77700
C975        C  0.31494614  0.87293701  0.77877143     0.83100
N976        N  0.30734101  0.84202537  0.78473998    -0.77600
C977        C  0.29289476  0.81766791  0.77122003     0.83200
N978        N  0.28629525  0.82443878  0.75138228    -0.79400
C979        C  0.42188954  0.51532034  0.86370727     0.80600
N980        N  0.39024436  0.97682363  0.85377080    -0.77700
C981        C  0.37255678  0.97639902  0.83745528     0.83100
N982        N  0.39410188  0.52141498  0.82851917    -0.77600
C983        C  0.40637852  0.54624439  0.84192698     0.83200
N984        N  0.42026259  0.54309728  0.85958955    -0.79400
C985        C  0.19077446  0.50432536  0.77149042     0.80600
N986        N  0.19790393  0.97861856  0.76192929    -0.77700
C987        C  0.17654181  0.94832236  0.75841328     0.83100
N988        N  0.15204945  0.93430224  0.77159377    -0.77600
C989        C  0.14841366  0.95024121  0.78832834     0.83200
N990        N  0.16979418  0.98101217  0.79163530    -0.79400
C991        C  0.00132539  0.83199061  0.85549344     0.80600
N992        N  0.02603663  0.84845392  0.84256003    -0.77700
C993        C  0.04659404  0.87902772  0.84698097     0.83100
N994        N  0.04203615  0.89298639  0.86453233    -0.77600
C995        C  0.01741230  0.87663999  0.87750961     0.83200
N996        N  0.99709055  0.84636676  0.87289618    -0.79400
C997        C  0.16477783  0.66213522  0.84915405     0.80600
N998        N  0.14997458  0.67279075  0.83596015    -0.77700
C999        C  0.12382190  0.67164965  0.84249337     0.83100
N1000       N  0.11250474  0.65964954  0.86254740    -0.77600
C1001       C  0.12723181  0.64918388  0.87595361     0.83200
N1002       N  0.15327797  0.65015769  0.86920126    -0.79400
C1003       C  0.01364067  0.71461108  0.77796193     0.80600
N1004       N  0.02526465  0.72967218  0.75851067    -0.77700
C1005       C  0.05314517  0.73524529  0.75201758     0.83100
N1006       N  0.06921811  0.72587494  0.76499034    -0.77600
C1007       C  0.05766835  0.71089395  0.78438890     0.83200
N1008       N  0.02997257  0.70549917  0.79063322    -0.79400
Zr1009     Zr  0.28401498  0.67177464  0.79858571     2.17500
O1010       O  0.26057173  0.67621417  0.76579087    -0.50900
O1011       O  0.24332172  0.66261210  0.82340218    -0.74100
O1012       O  0.24559379  0.61803932  0.78897515    -0.80900
O1013       O  0.32090903  0.75884761  0.81433169    -0.82700
O1014       O  0.26704530  0.58497944  0.79073209    -0.78300
O1015       O  0.28366686  0.72351297  0.79405456    -0.89900
O1016       O  0.25384298  0.64939554  0.85632716    -0.75900
O1017       O  0.28513278  0.63010189  0.82038519    -0.85400
O1018       O  0.30318332  0.69440732  0.83217182    -0.85100
O1019       O  0.31575195  0.65528957  0.77917083    -0.71800
O1020       O  0.33341525  0.71474522  0.79097038    -0.84000
Zr1021     Zr  0.38518937  0.67820790  0.82835126     2.26400
Zr1022     Zr  0.31759741  0.61446961  0.80189220     2.06300
Zr1023     Zr  0.35247612  0.73593520  0.82498804     2.10000
Zr1024     Zr  0.30325107  0.65229221  0.85393423     1.78800
O1025       O  0.38359084  0.78840377  0.80743383    -0.92800
O1026       O  0.26920008  0.59669785  0.86512117    -0.40600
O1027       O  0.35332351  0.69462017  0.84763695    -0.77200
O1028       O  0.33569740  0.63524021  0.83618670    -0.95900
O1029       O  0.36682200  0.65639148  0.79454328    -0.89200
O1030       O  0.38456043  0.72008539  0.80639207    -0.92000
C1031       C  0.23705158  0.65478621  0.84341840     1.01700
C1032       C  0.29866644  0.75118462  0.80228417     1.14600
C1033       C  0.24488649  0.59036783  0.78732859     1.05400
O1034       O  0.29423276  0.56029231  0.81823708    -0.94200
O1035       O  0.35159138  0.59290983  0.80939988    -0.91700
O1036       O  0.39026804  0.62890104  0.82820520    -0.83100
C1037       C  0.37551270  0.60138101  0.81977845     1.12100
O1038       O  0.34836748  0.70988657  0.73916297    -0.96200
Zr1039     Zr  0.36562493  0.69806964  0.77283987     1.88900
O1040       O  0.42799371  0.69491644  0.80388554    -0.72800
O1041       O  0.32219170  0.59641110  0.76642163    -0.52100
O1042       O  0.36709515  0.66320780  0.74509738    -0.96800
O1043       O  0.39317603  0.75434189  0.76032628    -0.54000
O1044       O  0.41721242  0.70833759  0.77111207    -0.73300
C1045       C  0.43487637  0.70506358  0.78422961     0.99000
O1046       O  0.40659948  0.66936462  0.86101955    -0.62200
O1047       O  0.34196166  0.75823864  0.85690157    -0.57000
O1048       O  0.42082810  0.72916453  0.84313410    -0.93600
O1049       O  0.39824701  0.76125157  0.84395264    -0.92100
O1050       O  0.30732939  0.68576701  0.88414499    -0.92400
O1051       O  0.31830336  0.63440483  0.88628305    -0.91200
C1052       C  0.41992053  0.75526007  0.84773346     1.17800
H1053       H  0.29195236  0.70387158  0.83884919     0.33800
H1054       H  0.33673342  0.61868088  0.84511793     0.44600
H1055       H  0.40425449  0.73812796  0.80439322     0.38200
H1056       H  0.30701692  0.64645095  0.76572272     0.34700
H1057       H  0.25740846  0.59836054  0.87739496     0.26400
H1058       H  0.34144254  0.59580232  0.76630527     0.32400
H1059       H  0.38529371  0.67683003  0.73623367     0.38300
H1060       H  0.29525064  0.69663914  0.88039359     0.32700
H1061       H  0.35212184  0.75306312  0.86862060     0.31600
H1062       H  0.38271355  0.80412791  0.81731570     0.33300
H1063       H  0.41228603  0.76315561  0.76777284     0.32300
H1064       H  0.34023470  0.64773601  0.88622603     0.36300
H1065       H  0.40444750  0.68353605  0.87162346     0.29000
H1066       H  0.23891782  0.66546510  0.76939196     0.33200
H1067       H  0.36533989  0.71671003  0.72871609     0.36100
H1068       H  0.35351112  0.78189627  0.85449697     0.28700
H1069       H  0.39232147  0.64737557  0.86644519     0.41600
H1070       H  0.28807569  0.56295402  0.83287850     0.31600
H1071       H  0.25482528  0.58839139  0.85348492     0.39200
H1072       H  0.38225729  0.76493716  0.76688139     0.31100
H1073       H  0.30693505  0.57348457  0.76656589     0.31200
H1074       H  0.26337916  0.66181493  0.75571965     0.31400
Zr1075     Zr  0.03311780  0.51320121  0.93733726     2.17500
O1076       O  0.06810591  0.52031230  0.90779712    -0.50900
O1077       O  0.99654112  0.51537166  0.91346869    -0.74100
O1078       O  0.01692872  0.95749962  0.91942513    -0.80900
O1079       O  0.07913333  0.60311184  0.94718672    -0.82700
O1080       O  0.99508794  0.91571876  0.94398195    -0.78300
O1081       O  0.06648051  0.56567571  0.92156198    -0.89900
O1082       O  0.45161087  0.50700060  0.93614360    -0.75900
O1083       O  0.97907343  0.97060333  0.95340314    -0.85400
O1084       O  0.01563979  0.54598298  0.95480537    -0.85100
O1085       O  0.03774695  0.97487070  0.95942884    -0.71800
O1086       O  0.07030224  0.54322657  0.96242657    -0.84000
Zr1087     Zr  0.01543908  0.50417416  0.02112274     2.26400
Zr1088     Zr  0.99160823  0.93871598  0.97796539     2.06300
Zr1089     Zr  0.05209644  0.57514169  0.98053472     2.10000
Zr1090     Zr  0.46471010  0.50554655  0.97352498     1.78800
O1091       O  0.10194348  0.61655786  0.98838585    -0.92800
O1092       O  0.40705619  0.95103980  0.97294393    -0.40600
O1093       O  0.00513927  0.53864897  0.99741268    -0.77200
O1094       O  0.46712864  0.96615706  0.99762116    -0.95900
O1095       O  0.02955035  0.96952192  0.00213763    -0.89200
O1096       O  0.06217969  0.54131860  0.00477598    -0.92000
C1097       C  0.46444148  0.50913011  0.91781530     1.01700
C1098       C  0.08063580  0.59447227  0.92799398     1.14600
C1099       C  0.00598455  0.92766368  0.92518111     1.05400
O1100       O  0.43322306  0.89484267  0.97339086    -0.94200
O1101       O  0.46767463  0.90664684  0.01396295    -0.89900
O1102       O  0.48131636  0.94501533  0.03902590    -0.83100
C1103       C  0.46920580  0.91565592  0.03339511     1.12100
O1104       O  0.11534416  0.51333137  0.95846787    -0.96200
Zr1105     Zr  0.07979631  0.50915498  0.98677257     1.88900
O1106       O  0.05162441  0.50087095  0.04488958    -0.72800
O1107       O  0.00769970  0.89792093  0.98483960    -0.52100
O1108       O  0.08299986  0.95856521  0.98516794    -0.96800
O1109       O  0.12825425  0.55566888  0.99131814    -0.54000
O1110       O  0.09011426  0.50375724  0.02403171    -0.73300
C1111       C  0.07682733  0.50098460  0.04220691     0.99000
O1112       O  0.47564564  0.49817551  0.04966197    -0.62200
O1113       O  0.03310208  0.61363474  0.97420918    -0.57000
O1114       O  0.02972973  0.55324769  0.03997035    -0.93600
O1115       O  0.04894041  0.59564326  0.01562569    -0.92100
O1116       O  0.45743291  0.55319370  0.96966913    -0.92400
O1117       O  0.43009237  0.50668606  0.00063696    -0.91200
C1118       C  0.04035507  0.58320326  0.03468796     1.17800
H1119       H  0.01338778  0.56061012  0.94471609     0.33800
H1120       H  0.44934985  0.95234049  0.00608755     0.44600
H1121       H  0.07603088  0.55404911  0.01535378     0.38200
H1122       H  0.04605728  0.96318860  0.95172858     0.34700
H1123       H  0.39322249  0.95909373  0.96795349     0.26400
H1124       H  0.99158115  0.87779854  0.97945853     0.32400
H1125       H  0.10130737  0.96494206  0.99336879     0.38300
H1126       H  0.43956136  0.54641732  0.96090689     0.32700
H1127       H  0.04848986  0.63409284  0.97975696     0.31600
H1128       H  0.10015245  0.63663985  0.98917166     0.33300
H1129       H  0.12750886  0.56261935  0.00605372     0.32300
H1130       H  0.43508807  0.00776765  0.01408098     0.36300
H1131       H  0.47242943  0.51697759  0.04602720     0.29000
H1132       H  0.05593095  0.51219008  0.89498440     0.33200
H1133       H  0.13230303  0.51300633  0.96587872     0.36100
H1134       H  0.03452934  0.61748147  0.95846179     0.28700
H1135       H  0.45280641  0.97717834  0.04600714     0.41600
H1136       H  0.42173361  0.89798572  0.98525448     0.31600
H1137       H  0.40868022  0.93856283  0.96090376     0.39200
H1138       H  0.12810923  0.57292327  0.98191475     0.31100
H1139       H  0.02484636  0.90362527  0.97473738     0.31200
H1140       H  0.06243228  0.00443228  0.90144624     0.31400
Zr1141     Zr  0.17654956  0.83113761  0.68359318     2.17500
O1142       O  0.17452084  0.79019127  0.70943888    -0.50900
O1143       O  0.17834026  0.87125010  0.70842355    -0.74100
O1144       O  0.22419142  0.84767382  0.69944701    -0.80900
O1145       O  0.09230065  0.78522733  0.67987305    -0.82700
O1146       O  0.26088087  0.87076708  0.67342974    -0.78300
O1147       O  0.12974059  0.79959250  0.70343618    -0.89900
O1148       O  0.18011300  0.91361080  0.68869654    -0.75900
O1149       O  0.20863636  0.88190882  0.66640124    -0.85400
O1150       O  0.14458321  0.85024994  0.66893565    -0.85100
O1151       O  0.20571320  0.82027574  0.65723982    -0.71800
O1152       O  0.14631322  0.79063691  0.65942552    -0.84000
Zr1153     Zr  0.17480870  0.85109610  0.60026616     2.26400
Zr1154     Zr  0.23716319  0.87157265  0.63966907     2.06300
Zr1155     Zr  0.11458022  0.81033950  0.64468716     2.10000
Zr1156     Zr  0.17656741  0.90058757  0.65128922     1.78800
O1157       O  0.07830102  0.75501328  0.63816216    -0.92800
O1158       O  0.21915634  0.95398172  0.65302137    -0.40600
O1159       O  0.14581760  0.86134495  0.62681281    -0.77200
O1160       O  0.20567244  0.89153199  0.62432006    -0.95900
O1161       O  0.20705241  0.83231285  0.61499844    -0.89200
O1162       O  0.14278702  0.80018412  0.61744046    -0.92000
C1163       C  0.17982306  0.89928035  0.70648832     1.01700
C1164       C  0.10218171  0.78504454  0.69869566     1.14600
C1165       C  0.25147339  0.86097541  0.69286843     1.05400
O1166       O  0.27456133  0.92674650  0.64531901    -0.94200
O1167       O  0.25937498  0.89589533  0.60430031    -0.89900
O1168       O  0.22185695  0.88189287  0.58076165    -0.83100
C1169       C  0.24938149  0.89616211  0.58551105     1.12100
O1170       O  0.17308130  0.74186323  0.65899997    -0.96200
Zr1171     Zr  0.17531594  0.78164891  0.63207582     1.88900
O1172       O  0.17631050  0.81348758  0.57474128    -0.72800
O1173       O  0.27396927  0.85367194  0.63096282    -0.52100
O1174       O  0.21921646  0.77373119  0.62732061    -0.96800
O1175       O  0.13437911  0.72822693  0.62626253    -0.54000
O1176       O  0.17893833  0.77306487  0.59396188    -0.73300
C1177       C  0.17876621  0.78749980  0.57624282     0.99000
O1178       O  0.17548334  0.89204965  0.57484889    -0.62200
O1179       O  0.07646871  0.82661241  0.65288618    -0.57000
O1180       O  0.12643939  0.83633199  0.58552288    -0.93600
O1181       O  0.09091718  0.81562817  0.61250740    -0.92100
O1182       O  0.13390402  0.90959007  0.65920227    -0.92400
O1183       O  0.17346676  0.93862480  0.62539173    -0.91200
C1184       C  0.09965413  0.82532036  0.59304582     1.17800
H1185       H  0.13237900  0.85281481  0.68000099     0.33800
H1186       H  0.21763051  0.91167036  0.61646279     0.44600
H1187       H  0.12976576  0.78539992  0.60726103     0.38200
H1188       H  0.21770375  0.81200259  0.66426299     0.34700
H1189       H  0.21101721  0.96725872  0.65973229     0.26400
H1190       H  0.29273291  0.87011361  0.63686116     0.32400
H1191       H  0.21225119  0.75364435  0.61936295     0.38300
H1192       H  0.14210929  0.92973207  0.66718555     0.32700
H1193       H  0.05833481  0.80628720  0.65688551     0.31600
H1194       H  0.05888274  0.75525527  0.63824616     0.33300
H1195       H  0.14334469  0.71748079  0.61747398     0.32300
H1196       H  0.18873910  0.94223471  0.61406886     0.36300
H1197       H  0.15809906  0.89517218  0.57899811     0.29000
H1198       H  0.18092693  0.80128433  0.72311046     0.33200
H1199       H  0.17591353  0.72546651  0.65103302     0.36100
H1200       H  0.08244749  0.83812566  0.66643378     0.28700
H1201       H  0.19271147  0.91251652  0.57866229     0.41600
H1202       H  0.26632245  0.94026197  0.63883409     0.31600
H1203       H  0.23180584  0.95156450  0.66407795     0.39200
H1204       H  0.12100155  0.73180302  0.61645209     0.31100
H1205       H  0.26825414  0.83414430  0.64027825     0.31200
H1206       H  0.19081286  0.78541516  0.70489664     0.31400
C1207       C  0.46527349  0.71364489  0.77597687    -0.16000
C1208       C  0.48428664  0.70800194  0.78784159    -0.31200
H1209       H  0.47193167  0.72426884  0.75984841     0.13000
H1210       H  0.47721572  0.69674255  0.80379035     0.13600
C1211       C  0.06654449  0.75215355  0.73184416    -0.12900
C1212       C  0.08113809  0.76693111  0.71597325    -0.14400
C1213       C  0.19256997  0.66293067  0.84092982    -0.16000
C1214       C  0.20899498  0.65273758  0.85241686    -0.31200
H1215       H  0.19976255  0.67249899  0.82461721     0.13000
H1216       H  0.20226327  0.64369988  0.86886655     0.13600
C1217       C  0.11958006  0.69637962  0.80727411    -0.13000
C1218       C  0.10723697  0.68211102  0.82758658     0.09200
C1219       C  0.07857075  0.67735792  0.83339559    -0.13000
C1220       C  0.06262266  0.68657436  0.81930555    -0.13000
C1221       C  0.07491463  0.70093128  0.79901627     0.09200
C1222       C  0.10360763  0.70572993  0.79315200    -0.13000
H1223       H  0.14162181  0.70037735  0.80225606     0.13200
H1224       H  0.06827542  0.66631647  0.84882747     0.13200
H1225       H  0.04057355  0.68243520  0.82442549     0.13200
H1226       H  0.11374411  0.71669452  0.77766982     0.13200
C1227       C  0.09961347  0.61831949  0.91208796    -0.12900
C1228       C  0.11359369  0.63417905  0.89641001    -0.14400
C1229       C  0.47150151  0.79810521  0.84712915    -0.16000
C1230       C  0.44533493  0.78101490  0.85789565    -0.31200
H1231       H  0.47545756  0.78989403  0.83185633     0.13000
H1232       H  0.44041150  0.79031066  0.87234379     0.13600
C1233       C  0.01179006  0.89214825  0.89526451    -0.12900
C1234       C  0.00769027  0.90674979  0.90945702    -0.14400
C1235       C  0.21717532  0.53537022  0.77491424    -0.16000
C1236       C  0.21663037  0.56206023  0.78186495    -0.31200
H1237       H  0.23853842  0.53606868  0.77137201     0.13000
H1238       H  0.19560971  0.56264236  0.78414605     0.13600
C1239       C  0.11884828  0.94653074  0.82230777    -0.13000
C1240       C  0.12205684  0.93294628  0.80325784     0.09200
C1241       C  0.10018717  0.90159576  0.79881253    -0.13000
C1242       C  0.07600269  0.88418341  0.81303313    -0.13000
C1243       C  0.07280846  0.89757127  0.83214740     0.09200
C1244       C  0.09450642  0.92903725  0.83659188    -0.13000
H1245       H  0.13526688  0.97052322  0.82629937     0.13200
H1246       H  0.10174436  0.89022483  0.78431156     0.13200
H1247       H  0.05974562  0.86016518  0.80894912     0.13200
H1248       H  0.09275110  0.94018709  0.85114394     0.13200
C1249       C  0.17965994  0.93088082  0.74080541    -0.12900
C1250       C  0.18055990  0.91594749  0.72561196    -0.14400
C1251       C  0.38556251  0.57667769  0.82212704    -0.16000
C1252       C  0.40241919  0.57533473  0.83815012    -0.31200
H1253       H  0.37587197  0.55680339  0.81135559     0.13000
H1254       H  0.41128737  0.59445752  0.84951706     0.13600
C1255       C  0.44905662  0.51051619  0.89875302    -0.12900
C1256       C  0.43652703  0.51217311  0.88271704    -0.14400
C1257       C  0.28682538  0.78454454  0.77738615    -0.16000
C1258       C  0.29160413  0.77746588  0.79740322    -0.31200
H1259       H  0.28224051  0.76728927  0.76490336     0.13000
H1260       H  0.29709342  0.79535800  0.80956615     0.13600
C1261       C  0.34174916  0.89368577  0.81319024    -0.13000
C1262       C  0.33060646  0.89918519  0.79380265     0.09200
C1263       C  0.33436248  0.93017355  0.78887880    -0.13000
C1264       C  0.34840550  0.95491199  0.80298666    -0.13000
C1265       C  0.35930975  0.94958025  0.82247670     0.09200
C1266       C  0.35612403  0.91873081  0.82736529    -0.13000
H1267       H  0.33930350  0.87003201  0.81744582     0.13200
H1268       H  0.32613620  0.93536385  0.77417174     0.13200
H1269       H  0.35060576  0.97840366  0.79853170     0.13200
H1270       H  0.36416129  0.91382433  0.84225397     0.13200
C1271       C  0.27240823  0.86391572  0.70889571    -0.12900
C1272       C  0.28455940  0.86184073  0.72485292    -0.14400
C1273       C  0.02499851  0.65813584  0.42822783    -0.16000
C1274       C  0.04702724  0.65555540  0.43821773    -0.31200
H1275       H  0.00646453  0.63647301  0.42254862     0.13000
H1276       H  0.06690916  0.67683185  0.44269841     0.13600
C1277       C  0.02477400  0.88731076  0.52345025    -0.16000
C1278       C  0.00264955  0.88904428  0.51292968    -0.31200
H1279       H  0.04289485  0.90924883  0.52917731     0.13000
H1280       H  0.48614676  0.87587086  0.51454435     0.13600
C1281       C  0.03577905  0.76750851  0.49592585    -0.13000
C1282       C  0.02769841  0.79240143  0.49373419     0.09200
C1283       C  0.01896990  0.79847461  0.47366756    -0.13000
C1284       C  0.01804477  0.77995500  0.45629006    -0.13000
C1285       C  0.02570880  0.75477235  0.45852310     0.09200
C1286       C  0.03482261  0.74892515  0.47851347    -0.13000
H1287       H  0.54321696  0.76727877  0.51349327     0.13200
H1288       H  0.01290585  0.81759917  0.47132496     0.13200
H1289       H  0.01094378  0.78523504  0.44110525     0.13200
H1290       H  0.04065646  0.72962351  0.48083886     0.13200
C1291       C  0.06224247  0.82613039  0.56483213    -0.12900
C1292       C  0.07802641  0.82463763  0.57846216    -0.14400
C1293       C  0.40838278  0.87849438  0.43651378    -0.16000
C1294       C  0.41203509  0.89460754  0.45462568    -0.31200
H1295       H  0.42573778  0.88819606  0.42394351     0.13000
H1296       H  0.39546033  0.88404591  0.46766814     0.13600
C1297       C  0.15017605  0.67441332  0.49022272    -0.16000
C1298       C  0.12673103  0.65460472  0.50292900    -0.31200
H1299       H  0.15316783  0.66684058  0.47445997     0.13000
H1300       H  0.12438873  0.66188473  0.51894271     0.13600
C1301       C  0.25350537  0.75096230  0.46056188    -0.13000
C1302       C  0.24988474  0.76602262  0.47873357     0.09200
C1303       C  0.27395110  0.79528860  0.48449770    -0.13000
C1304       C  0.30106942  0.80878263  0.47249801    -0.13000
C1305       C  0.30467475  0.79320603  0.45455401     0.09200
C1306       C  0.28037821  0.76428125  0.44871332    -0.13000
H1307       H  0.23559385  0.72852085  0.45547516     0.13200
H1308       H  0.27195353  0.80760274  0.49837492     0.13200
H1309       H  0.31927414  0.83112272  0.47743006     0.13200
H1310       H  0.28204257  0.75158864  0.43493723     0.13200
C1311       C  0.18227317  0.77386077  0.55658478    -0.12900
C1312       C  0.18617548  0.76263072  0.54030536    -0.14400
C1313       C  0.16892274  0.53302299  0.45386724    -0.16000
C1314       C  0.15471169  0.54963239  0.44681673    -0.31200
H1315       H  0.15768842  0.51368466  0.46591011     0.13000
H1316       H  0.16646550  0.56998539  0.43556357     0.13600
C1317       C  0.37312871  0.97360637  0.50574608    -0.16000
C1318       C  0.39314656  0.99688930  0.49249799    -0.31200
H1319       H  0.37986483  0.95811641  0.51480203     0.13000
H1320       H  0.38658243  0.01304170  0.48407182     0.13600
C1321       C  0.26028289  0.48887893  0.49845374    -0.13000
C1322       C  0.28695628  0.99468202  0.48918779     0.09200
C1323       C  0.30006673  0.01221667  0.46985197    -0.13000
C1324       C  0.28869257  0.52662109  0.46163711    -0.13000
C1325       C  0.25924811  0.52041756  0.46690413     0.09200
C1326       C  0.24538017  0.50133133  0.48554268    -0.13000
H1327       H  0.24854467  0.47430370  0.51260049     0.13200
H1328       H  0.32193034  0.01604388  0.46449161     0.13200
H1329       H  0.30025462  0.54121999  0.44745462     0.13200
H1330       H  0.22283339  0.49591021  0.49025047     0.13200
C1331       C  0.27014295  0.91452163  0.56829416    -0.12900
C1332       C  0.28472742  0.93004033  0.55269136    -0.14400
C1333       C  0.48321973  0.72468758  0.39318997    -0.12900
C1334       C  0.46438830  0.71973999  0.38040479    -0.14400
C1335       C  0.36480395  0.76083878  0.38476655    -0.12900
C1336       C  0.36422784  0.77855286  0.39823922    -0.14400
C1337       C  0.27151181  0.59859850  0.38748605    -0.12900
C1338       C  0.25670786  0.58316679  0.40323876    -0.14400
C1339       C  0.36675816  0.83927902  0.12198248    -0.16000
C1340       C  0.34999170  0.84816621  0.10983199    -0.31200
H1341       H  0.35927592  0.82978963  0.13826771     0.13000
H1342       H  0.35719066  0.85659155  0.09332868     0.13600
C1343       C  0.44580887  0.87413563  0.06638218    -0.12900
C1344       C  0.45628035  0.89136174  0.05044954    -0.14400
C1345       C  0.07500878  0.79428073  0.18086884    -0.16000
C1346       C  0.09031240  0.80858999  0.16251160    -0.31200
H1347       H  0.08572023  0.78740541  0.19344447     0.13000
H1348       H  0.07909532  0.81423089  0.14967189     0.13600
C1349       C  0.49599339  0.81117014  0.13986887    -0.13000
C1350       C  0.48356242  0.79676815  0.16009901     0.09200
C1351       C  0.45534194  0.79322155  0.16619763    -0.13000
C1352       C  0.44006864  0.80406638  0.15261235    -0.13000
C1353       C  0.45246296  0.81872309  0.13244522     0.09200
C1354       C  0.48055993  0.82194149  0.12615129    -0.13000
H1355       H  0.51761918  0.81411838  0.13463142     0.13200
H1356       H  0.44504444  0.78234312  0.18166219     0.13200
H1357       H  0.41852026  0.80109236  0.15807020     0.13200
H1358       H  0.49077751  0.83305184  0.11071949     0.13200
C1359       C  0.46559878  0.72427333  0.24043574    -0.12900
C1360       C  0.48266155  0.73837141  0.22557360    -0.14400
C1361       C  0.33913283  0.94943653  0.17170306    -0.16000
C1362       C  0.33738916  0.97534272  0.17890590    -0.31200
H1363       H  0.36034104  0.94896750  0.17107842     0.13000
H1364       H  0.31559789  0.97416550  0.18119177     0.13600
C1365       C  0.37476288  0.58141687  0.24033570    -0.12900
C1366       C  0.37811052  0.56611102  0.22625309    -0.14400
C1367       C  0.10297397  0.72124726  0.10919860    -0.16000
C1368       C  0.08731152  0.69543313  0.12248116    -0.31200
H1369       H  0.09483529  0.72247736  0.09339272     0.13000
H1370       H  0.09404438  0.69540550  0.13890919     0.13600
C1371       C  0.46903629  0.56557917  0.13480793    -0.13000
C1372       C  0.49162255  0.59605612  0.14026940     0.09200
C1373       C  0.48911411  0.60788034  0.16024508    -0.13000
C1374       C  0.46414736  0.59051547  0.17390895    -0.13000
C1375       C  0.44089149  0.56072208  0.16806805     0.09200
C1376       C  0.44401840  0.54810428  0.14855032    -0.13000
H1377       H  0.47030403  0.55549289  0.11965697     0.13200
H1378       H  0.50605866  0.63107814  0.16513013     0.13200
H1379       H  0.46277214  0.60099143  0.18887016     0.13200
H1380       H  0.42668932  0.52522351  0.14353331     0.13200
C1381       C  0.04108565  0.61691257  0.06788712    -0.12900
C1382       C  0.04200130  0.60383600  0.05172553    -0.14400
C1383       C  0.25773604  0.73229351  0.17722630    -0.16000
C1384       C  0.24245123  0.70223434  0.17010459    -0.31200
H1385       H  0.27225450  0.73717648  0.19071389     0.13000
H1386       H  0.22922881  0.69868882  0.15595160     0.13600
C1387       C  0.25934159  0.63861395  0.22743353    -0.12900
C1388       C  0.27248197  0.63809591  0.24330776    -0.14400
C1389       C  0.15349786  0.93044158  0.10327387    -0.16000
C1390       C  0.17988859  0.93528016  0.11079234    -0.31200
H1391       H  0.13767829  0.90708186  0.09766548     0.13000
H1392       H  0.19559396  0.95937779  0.11542335     0.13600
C1393       C  0.16358050  0.56334184  0.13714778    -0.13000
C1394       C  0.16886615  0.53653112  0.13703750     0.09200
C1395       C  0.18855384  0.53454161  0.15198636    -0.13000
C1396       C  0.20345661  0.55942932  0.16610398    -0.13000
C1397       C  0.19915236  0.58687775  0.16538964     0.09200
C1398       C  0.17858313  0.58819467  0.15108241    -0.13000
H1399       H  0.14840737  0.56560529  0.12607728     0.13200
H1400       H  0.19302252  0.51410774  0.15246115     0.13200
H1401       H  0.21922944  0.55781897  0.17689987     0.13200
H1402       H  0.17451398  0.60890373  0.15031984     0.13200
C1403       C  0.10263407  0.98809673  0.07224173    -0.12900
C1404       C  0.09146267  0.49746449  0.06085714    -0.14400
C1405       C  0.62227825  0.48590167  0.09102943     0.80600
N1406       N  0.62858333  0.46069576  0.09142328    -0.77700
C1407       C  0.64859343  0.46006159  0.10535791     0.83100
N1408       N  0.66190347  0.48452181  0.11894515    -0.77600
C1409       C  0.65094599  0.00343121  0.11467214     0.83200
N1410       N  0.63164672  0.00481088  0.10033179    -0.79400
C1411       C  0.74288206  0.13442732  0.20045142     0.80600
N1412       N  0.72687218  0.10727708  0.18935440    -0.77700
C1413       C  0.71456798  0.10930060  0.17050518     0.83100
N1414       N  0.71871770  0.13845232  0.16299388    -0.77600
C1415       C  0.73492129  0.16558100  0.17361144     0.83200
N1416       N  0.74696758  0.16363723  0.19252814    -0.79400
C1417       C  0.55926071  0.16769542  0.11051346     0.80600
N1418       N  0.53602396  0.14983065  0.12442564    -0.77700
C1419       C  0.01336147  0.12443468  0.11742982     0.83100
N1420       N  0.01485001  0.11412184  0.09752474    -0.77600
C1421       C  0.53706467  0.12874478  0.08454904     0.83200
N1422       N  0.55980680  0.15696752  0.09055640    -0.79400
C1423       C  0.86297415  0.00667083  0.18242741     0.80600
N1424       N  0.88866906  0.02086518  0.17011529    -0.77700
C1425       C  0.91060662  0.05076337  0.17471646     0.83100
N1426       N  0.90646673  0.06602005  0.19169281    -0.77600
C1427       C  0.88093481  0.05199438  0.20386965     0.83200
N1428       N  0.85908367  0.02265295  0.19899081    -0.79400
C1429       C  0.54319539  0.28838558  0.18711598     0.80600
N1430       N  0.52766868  0.26994425  0.20462615    -0.77700
C1431       C  0.99731764  0.26457431  0.20699396     0.83100
N1432       N  0.98395806  0.27526262  0.19263586    -0.77600
C1433       C  0.99926010  0.29369703  0.17512619     0.83200
N1434       N  0.52954818  0.29984587  0.17317678    -0.79400
C1435       C  0.89472587  0.34563759  0.11068976     0.80600
N1436       N  0.91004226  0.33499524  0.12333351    -0.77700
C1437       C  0.93715435  0.33844607  0.11685809     0.83100
N1438       N  0.94908092  0.35303390  0.09739607    -0.77600
C1439       C  0.93387016  0.36367401  0.08451379     0.83200
N1440       N  0.90678375  0.36008158  0.09121825    -0.79400
Zr1441     Zr  0.67296484  0.33113786  0.11971062     2.17500
O1442       O  0.65574155  0.33766978  0.08463232    -0.50900
O1443       O  0.62954268  0.32274348  0.14080871    -0.74100
O1444       O  0.63478010  0.27865810  0.10852245    -0.80900
O1445       O  0.71484849  0.42078639  0.12819524    -0.82700
O1446       O  0.64677992  0.24103115  0.12245195    -0.78300
O1447       O  0.67244528  0.38259813  0.11397720    -0.89900
O1448       O  0.63650454  0.31272942  0.17554632    -0.75900
O1449       O  0.66841458  0.29289247  0.14725820    -0.85400
O1450       O  0.69255836  0.36004054  0.15134646    -0.85100
O1451       O  0.70070287  0.30517161  0.10630046    -0.71800
O1452       O  0.72386067  0.36860629  0.11062017    -0.84000
Zr1453     Zr  0.76885111  0.33379710  0.15700494     2.26400
Zr1454     Zr  0.69734080  0.26835347  0.13475395     2.06300
Zr1455     Zr  0.74353538  0.39631507  0.14280251     2.10000
Zr1456     Zr  0.68807017  0.32186058  0.17854159     1.78800
O1457       O  0.77588625  0.44379146  0.12061752    -0.92800
O1458       O  0.65843335  0.27024902  0.19764675    -0.40600
O1459       O  0.73993597  0.35863501  0.17065111    -0.77200
O1460       O  0.71735650  0.29687793  0.16663283    -0.95900
O1461       O  0.74830989  0.30438257  0.12566539    -0.89200
O1462       O  0.77214804  0.37172673  0.12962319    -0.92000
C1463       C  0.62069769  0.31540608  0.16044538     1.01700
C1464       C  0.69007179  0.41174720  0.11888027     1.14600
C1465       C  0.62925113  0.24935068  0.11265966     1.05400
O1466       O  0.66620117  0.21738046  0.15406793    -0.94200
O1467       O  0.72450150  0.24428398  0.15226999    -0.89900
O1468       O  0.76759478  0.28184908  0.16583936    -0.83100
C1469       C  0.74858049  0.25251128  0.16242768     1.12100
O1470       O  0.73513316  0.34547758  0.06243993    -0.96200
Zr1471     Zr  0.75198948  0.34256592  0.09840073     1.88900
O1472       O  0.81070298  0.33869541  0.13420374    -0.72800
O1473       O  0.70420778  0.24015509  0.10467408    -0.52100
O1474       O  0.75211012  0.30069208  0.07618026    -0.96800
O1475       O  0.78240300  0.39479498  0.08016085    -0.54000
O1476       O  0.80191990  0.34812056  0.09977474    -0.73300
C1477       C  0.81816876  0.34477967  0.11411186     0.99000
O1478       O  0.78729599  0.33108176  0.19245488    -0.62200
O1479       O  0.73827800  0.42680587  0.17214083    -0.57000
O1480       O  0.80850321  0.38723541  0.16633811    -0.93600
O1481       O  0.79115907  0.42326721  0.15941353    -0.92100
O1482       O  0.68652809  0.36359164  0.20011050    -0.92400
O1483       O  0.70381634  0.32087946  0.21507391    -0.91200
C1484       C  0.81108648  0.41593868  0.16610861     1.17800
H1485       H  0.68181796  0.37146509  0.15572358     0.33800
H1486       H  0.71645487  0.28209311  0.17803116     0.44600
H1487       H  0.79254110  0.38774849  0.12659333     0.38200
H1488       H  0.69171902  0.29359210  0.09362875     0.34700
H1489       H  0.64512640  0.27414628  0.20760133     0.26400
H1490       H  0.71985128  0.23445497  0.10914698     0.32400
H1491       H  0.77060273  0.31158449  0.06711372     0.38300
H1492       H  0.66677077  0.35300095  0.20766397     0.32700
H1493       H  0.75162287  0.44964996  0.16788966     0.31600
H1494       H  0.77622000  0.46213728  0.12831428     0.33300
H1495       H  0.80123035  0.40461127  0.08795226     0.32300
H1496       H  0.71921985  0.31361196  0.21377640     0.36300
H1497       H  0.78814872  0.34985203  0.19989682     0.29000
H1498       H  0.63377896  0.32785331  0.08641650     0.33200
H1499       H  0.75237160  0.35035088  0.05260406     0.36100
H1500       H  0.71793123  0.42452080  0.17113022     0.28700
H1501       H  0.77067214  0.31236441  0.20004733     0.41600
H1502       H  0.66758432  0.22285622  0.16935864     0.31600
H1503       H  0.64499055  0.25620007  0.18679245     0.39200
H1504       H  0.77240609  0.40790671  0.08378826     0.31100
H1505       H  0.68575394  0.21929561  0.10486074     0.31200
H1506       H  0.65933892  0.32292832  0.07537360     0.31400
Zr1507     Zr  0.85776813  0.16485051  0.35196757     2.17500
O1508       O  0.85474055  0.13411994  0.38492228    -0.50900
O1509       O  0.85449692  0.20788696  0.37113153    -0.74100
O1510       O  0.90497534  0.18595908  0.36999821    -0.80900
O1511       O  0.77510500  0.10776518  0.34403744    -0.82700
O1512       O  0.94274973  0.20785197  0.34479294    -0.78300
O1513       O  0.81044972  0.12860914  0.36925448    -0.89900
O1514       O  0.85624814  0.24548542  0.34662184    -0.75900
O1515       O  0.88913760  0.21291410  0.33181853    -0.85400
O1516       O  0.82494182  0.17747722  0.33169070    -0.85100
O1517       O  0.88979340  0.15097874  0.33066730    -0.71800
O1518       O  0.83092297  0.11972802  0.32986496    -0.84000
Zr1519     Zr  0.86302181  0.16896932  0.26697873     2.26400
Zr1520     Zr  0.92065505  0.19941808  0.30994317     2.06300
Zr1521     Zr  0.79875860  0.13302666  0.30903194     2.10000
Zr1522     Zr  0.85649457  0.22527229  0.31126728     1.78800
O1523       O  0.76330746  0.07699579  0.30357057    -0.92800
O1524       O  0.89704229  0.28023347  0.30910861    -0.40600
O1525       O  0.83018951  0.18132490  0.28845000    -0.77200
O1526       O  0.88945800  0.21418888  0.28898494    -0.95900
O1527       O  0.89464621  0.15509815  0.28750278    -0.89200
O1528       O  0.83085023  0.12061278  0.28693679    -0.92000
C1529       C  0.85499678  0.23479767  0.36590958     1.01700
C1530       C  0.78394842  0.11016210  0.36345902     1.14600
C1531       C  0.93264590  0.20048466  0.36419119     1.05400
O1532       O  0.95719548  0.25596313  0.31158415    -0.94200
O1533       O  0.94682198  0.21751720  0.27537404    -0.89900
O1534       O  0.91231722  0.19793806  0.24955349    -0.83100
C1535       C  0.93914406  0.21387711  0.25578157     1.12100
O1536       O  0.86002239  0.07208665  0.33800475    -0.96200
Zr1537     Zr  0.86273921  0.10722353  0.30761512     1.88900
O1538       O  0.86681594  0.12687464  0.24744146    -0.72800
O1539       O  0.95825596  0.18091822  0.30840275    -0.52100
O1540       O  0.90776673  0.10090677  0.30843251    -0.96800
O1541       O  0.82117899  0.05300871  0.30612485    -0.54000
O1542       O  0.86795938  0.09061615  0.27187569    -0.73300
C1543       C  0.86878273  0.10132121  0.25262931     0.99000
O1544       O  0.86449729  0.20361429  0.23650947    -0.62200
O1545       O  0.76006804  0.14958311  0.31340449    -0.57000
O1546       O  0.81657989  0.14916330  0.24846021    -0.93600
O1547       O  0.77829059  0.13135844  0.27338518    -0.92100
O1548       O  0.81025787  0.22905996  0.31369710    -0.92400
O1549       O  0.85265511  0.25761591  0.28151643    -0.91200
C1550       C  0.78897060  0.13790354  0.25394517     1.17800
H1551       H  0.81120938  0.18071374  0.34098259     0.33800
H1552       H  0.90155536  0.23316718  0.28005044     0.44600
H1553       H  0.81925027  0.10353361  0.27750643     0.38200
H1554       H  0.90176399  0.14507016  0.33982425     0.34700
H1555       H  0.88910137  0.29312345  0.31658121     0.26400
H1556       H  0.97677652  0.19945598  0.31292783     0.32400
H1557       H  0.90353419  0.08212280  0.29960165     0.38300
H1558       H  0.81626213  0.25119841  0.31834561     0.32700
H1559       H  0.74133113  0.13022663  0.31022317     0.31600
H1560       H  0.74387182  0.07695127  0.30220953     0.33300
H1561       H  0.81495862  0.05074862  0.29106012     0.32300
H1562       H  0.85733711  0.24883937  0.26857787     0.36300
H1563       H  0.84721225  0.20770690  0.23885418     0.29000
H1564       H  0.86078688  0.14980760  0.39646878     0.33200
H1565       H  0.86333591  0.05471123  0.33187921     0.36100
H1566       H  0.75847978  0.15204695  0.32900524     0.28700
H1567       H  0.88184648  0.22484480  0.23868031     0.41600
H1568       H  0.95092631  0.26729952  0.30084091     0.31600
H1569       H  0.91213901  0.27985507  0.31878165     0.39200
H1570       H  0.80467237  0.05389605  0.31428393     0.31100
H1571       H  0.95270420  0.16464927  0.32034699     0.31200
H1572       H  0.87091202  0.12799258  0.38357655     0.31400
C1573       C  0.84252403  0.47102817  0.51626464     0.80600
N1574       N  0.82987631  0.48469230  0.50306855    -0.77700
C1575       C  0.80342720  0.48397789  0.50886485     0.83100
N1576       N  0.79003869  0.46960917  0.52811566    -0.77600
C1577       C  0.80258807  0.45611442  0.54129984     0.83200
N1578       N  0.82863109  0.45672779  0.53526523    -0.79400
C1579       C  0.69837837  0.04172107  0.44335566     0.80600
N1580       N  0.71316657  0.02983162  0.45571248    -0.77700
C1581       C  0.74019138  0.03287070  0.44914770     0.83100
N1582       N  0.75213286  0.04777818  0.42973045    -0.77600
C1583       C  0.73735544  0.05945346  0.41715975     0.83200
N1584       N  0.71063370  0.05655081  0.42405428    -0.79400
C1585       C  0.67489002  0.20808369  0.51287255     0.80600
N1586       N  0.69924699  0.21995418  0.49916988    -0.77700
C1587       C  0.72316038  0.24929877  0.50224649     0.83100
N1588       N  0.72220611  0.26669398  0.51917285    -0.77600
C1589       C  0.69789216  0.25494393  0.53279364     0.83200
N1590       N  0.67451701  0.22573283  0.52961064    -0.79400
C1591       C  0.87525912  0.34092117  0.43145043     0.80600
N1592       N  0.85132862  0.32951829  0.44559971    -0.77700
C1593       C  0.82779708  0.29953211  0.44364423     0.83100
N1594       N  0.82873459  0.28100409  0.42751383    -0.77600
C1595       C  0.85245267  0.29207102  0.41346512     0.83200
N1596       N  0.87555015  0.32201732  0.41540597    -0.79400
C1597       C  0.55306069  0.33779449  0.55013446     0.80600
N1598       N  0.54662983  0.31694551  0.53407091    -0.77700
C1599       C  0.53468516  0.32140451  0.51576634     0.83100
N1600       N  0.52917273  0.34713330  0.51377646    -0.77600
C1601       C  0.53577041  0.36824999  0.52982414     0.83200
N1602       N  0.54837716  0.36387500  0.54776776    -0.79400
C1603       C  0.49645188  0.21962690  0.41149175     0.80600
N1604       N  0.50536079  0.19661855  0.41244461    -0.77700
C1605       C  0.52245959  0.19551038  0.42853276     0.83100
N1606       N  0.52963041  0.21700511  0.44442443    -0.77600
C1607       C  0.52035291  0.24008971  0.44375215     0.83200
N1608       N  0.50368407  0.24110694  0.42719106    -0.79400
Zr1609     Zr  0.97519131  0.47043524  0.49498414     2.17500
O1610       O  0.95294715  0.44930712  0.53054922    -0.50900
O1611       O  0.93787389  0.42784073  0.47510921    -0.74100
O1612       O  0.92970834  0.47706772  0.49918939    -0.80900
O1613       O  0.54096567  0.45107813  0.50019711    -0.82700
O1614       O  0.93728116  0.02302509  0.47915344    -0.78300
O1615       O  0.98250570  0.42444020  0.50679175    -0.89900
O1616       O  0.95300631  0.43589968  0.43997943    -0.75900
O1617       O  0.97076039  0.49475859  0.46232536    -0.85400
O1618       O  0.51139325  0.47217284  0.46873535    -0.85100
O1619       O  0.99218373  0.02684247  0.50306166    -0.71800
O1620       O  0.53518329  0.51000912  0.50587927    -0.84000
Zr1621     Zr  0.57247023  0.07627874  0.45140513     2.26400
Zr1622     Zr  0.98966542  0.05309353  0.47034819     2.06300
Zr1623     Zr  0.56256172  0.49990607  0.47800756     2.10000
Zr1624     Zr  0.50264516  0.49284039  0.43614308     1.78800
O1625       O  0.59707246  0.50150112  0.50513154    -0.92800
O1626       O  0.96751730  0.49470854  0.41192508    -0.40600
O1627       O  0.55359579  0.01968004  0.44537989    -0.77200
O1628       O  0.52148748  0.04975165  0.44031608    -0.95900
O1629       O  0.54422276  0.08526389  0.47865920    -0.89200
O1630       O  0.57927372  0.05341889  0.48404351    -0.92000
C1631       C  0.93437463  0.41980845  0.45553246     1.01700
C1632       C  0.51530446  0.43212695  0.50877382     1.14600
C1633       C  0.92107511  0.49695433  0.49120684     1.05400
O1634       O  0.96118944  0.06174335  0.44224775    -0.94200
O1635       O  0.51964122  0.11252353  0.45368065    -0.89900
O1636       O  0.56716647  0.12505434  0.44332022    -0.83100
C1637       C  0.54549248  0.13195624  0.44571268     1.12100
O1638       O  0.53341792  0.05227837  0.54842625    -0.96200
Zr1639     Zr  0.55162330  0.06342992  0.51115493     1.88900
O1640       O  0.61203254  0.11962695  0.46965593    -0.72800
O1641       O  0.97900232  0.08529560  0.49566469    -0.52100
O1642       O  0.54096505  0.10513878  0.52513264    -0.96800
O1643       O  0.58525862  0.05500046  0.53489159    -0.54000
O1644       O  0.59835661  0.11400758  0.50507479    -0.73300
C1645       C  0.61626974  0.12905951  0.48896496     0.99000
O1646       O  0.58902127  0.09390614  0.41429112    -0.62200
O1647       O  0.56854236  0.46095303  0.45610372    -0.57000
O1648       O  0.61641004  0.06868763  0.44374247    -0.93600
O1649       O  0.60936904  0.02258642  0.46158265    -0.92100
O1650       O  0.51426558  0.45355846  0.41937583    -0.92400
O1651       O  0.51824703  0.50610192  0.39851534    -0.91200
C1652       C  0.62503311  0.04788626  0.44962420     1.17800
H1653       H  0.50497236  0.44940628  0.46763940     0.33800
H1654       H  0.51979514  0.05982023  0.42707321     0.44600
H1655       H  0.60005345  0.06257767  0.48746427     0.38200
H1656       H  0.97888267  0.02796877  0.51389268     0.34700
H1657       H  0.95845436  0.47488315  0.40362792     0.26400
H1658       H  0.99871858  0.10351659  0.49848795     0.32400
H1659       H  0.54687691  0.12166608  0.51331704     0.38300
H1660       H  0.49580760  0.43894637  0.41220132     0.32700
H1661       H  0.57869351  0.45194598  0.46539416     0.31600
H1662       H  0.60446428  0.48652523  0.50022323     0.33300
H1663       H  0.60423541  0.06275798  0.52648883     0.32300
H1664       H  0.53425451  0.02740799  0.39804819     0.36300
H1665       H  0.59197986  0.07629273  0.40818891     0.29000
H1666       H  0.93162831  0.43483615  0.52812620     0.33200
H1667       H  0.54845042  0.07014223  0.55653238     0.36100
H1668       H  0.54816386  0.44299327  0.45487781     0.28700
H1669       H  0.57117799  0.09250619  0.40719366     0.41600
H1670       H  0.96759924  0.05533601  0.42894918     0.31600
H1671       H  0.95093899  0.49333377  0.42125838     0.39200
H1672       H  0.57728446  0.03131157  0.53611201     0.31100
H1673       H  0.96884920  0.09515141  0.48714097     0.31200
H1674       H  0.95314664  0.46794296  0.53776657     0.31400
C1675       C  0.79887611  0.36402491  0.75263718     0.80600
N1676       N  0.81656687  0.39115257  0.76312756    -0.77700
C1677       C  0.82866035  0.38895327  0.78197207     0.83100
N1678       N  0.82250820  0.35947080  0.79018116    -0.77600
C1679       C  0.80488688  0.33224245  0.78005165     0.83200
N1680       N  0.79304583  0.33440213  0.76104734    -0.79400
C1681       C  0.91231028  0.00962070  0.86501780     0.80600
N1682       N  0.91528539  0.49730002  0.84918516    -0.77700
C1683       C  0.89989431  0.49966913  0.83215657     0.83100
N1684       N  0.87876924  0.00846676  0.83157143    -0.77600
C1685       C  0.88767693  0.03296871  0.84509957     0.83200
N1686       N  0.90461813  0.03371027  0.86197283    -0.79400
C1687       C  0.69102281  0.99864988  0.78661410     0.80600
N1688       N  0.69139455  0.49113262  0.76497323    -0.77700
C1689       C  0.66836055  0.46220799  0.76085730     0.83100
N1690       N  0.64172794  0.45248240  0.77113223    -0.77600
C1691       C  0.63781557  0.47133057  0.78570770     0.83200
N1692       N  0.66113127  0.50061297  0.78984318    -0.79400
C1693       C  0.48597083  0.35143993  0.84327854     0.80600
N1694       N  0.50901481  0.37252990  0.83038492    -0.77700
C1695       C  0.53098675  0.39987006  0.83826739     0.83100
N1696       N  0.52912002  0.40631017  0.85919570    -0.77600
C1697       C  0.50583531  0.38548508  0.87209691     0.83200
N1698       N  0.48435358  0.35803297  0.86416600    -0.79400
C1699       C  0.66308173  0.15972291  0.85239060     0.80600
N1700       N  0.64912418  0.17184501  0.83951393    -0.77700
C1701       C  0.62204660  0.16890608  0.84531550     0.83100
N1702       N  0.60872953  0.15323998  0.86416059    -0.77600
C1703       C  0.62230263  0.14082286  0.87713588     0.83200
N1704       N  0.64953732  0.14395408  0.87126448    -0.79400
C1705       C  0.51380302  0.21475900  0.78134022     0.80600
N1706       N  0.52531787  0.22945485  0.76182700    -0.77700
C1707       C  0.55342566  0.23576811  0.75560629     0.83100
N1708       N  0.56984134  0.22729856  0.76884930    -0.77600
C1709       C  0.55837501  0.21266500  0.78834789     0.83200
N1710       N  0.53045910  0.20671905  0.79442176    -0.79400
Zr1711     Zr  0.78323545  0.16952358  0.80274425     2.17500
O1712       O  0.75441137  0.16362231  0.77080513    -0.50900
O1713       O  0.74481539  0.16581319  0.82818852    -0.74100
O1714       O  0.74559849  0.11338343  0.79846491    -0.80900
O1715       O  0.82304342  0.26022195  0.79988738    -0.82700
O1716       O  0.76663666  0.08131357  0.80722812    -0.78300
O1717       O  0.78068681  0.21794088  0.78904966    -0.89900
O1718       O  0.75864306  0.16167493  0.86207731    -0.75900
O1719       O  0.78704546  0.13779983  0.83184672    -0.85400
O1720       O  0.80752204  0.20551837  0.83058292    -0.85100
O1721       O  0.81198177  0.14464656  0.78896856    -0.71800
O1722       O  0.83134189  0.20718732  0.78773325    -0.84000
Zr1723     Zr  0.88842540  0.18754799  0.83256035     2.26400
Zr1724     Zr  0.81680879  0.11425210  0.81878156     2.06300
Zr1725     Zr  0.85569896  0.24246835  0.81600697     2.10000
Zr1726     Zr  0.81078669  0.17361842  0.85962023     1.78800
O1727       O  0.88333582  0.28235870  0.78748515    -0.92800
O1728       O  0.78714992  0.12485451  0.88258889    -0.40600
O1729       O  0.85946598  0.21208256  0.84605122    -0.77200
O1730       O  0.84037877  0.14919600  0.84742024    -0.95900
O1731       O  0.86492723  0.15159917  0.80456495    -0.89200
O1732       O  0.88478986  0.21864463  0.80312705    -0.92000
C1733       C  0.73989582  0.16180054  0.84859119     1.01700
C1734       C  0.79790644  0.24835858  0.79077158     1.14600
C1735       C  0.74480379  0.08565147  0.80084440     1.05400
O1736       O  0.79103595  0.06957688  0.84479697    -0.94200
O1737       O  0.85158059  0.09686835  0.83286260    -0.91700
O1738       O  0.89506601  0.14017056  0.84091518    -0.83100
C1739       C  0.87827141  0.10968308  0.83971849     1.12100
O1740       O  0.83749512  0.17223623  0.74069217    -0.96200
Zr1741     Zr  0.86078858  0.18265312  0.77542147     1.88900
O1742       O  0.92922624  0.19839297  0.80708281    -0.72800
O1743       O  0.82110968  0.07934340  0.79224544    -0.52100
O1744       O  0.86207534  0.13690893  0.75873552    -0.96800
O1745       O  0.88221651  0.22955598  0.75063029    -0.54000
O1746       O  0.91366595  0.19846316  0.77312407    -0.73300
C1747       C  0.93365438  0.20206060  0.78659789     0.99000
O1748       O  0.91345811  0.19049113  0.86615887    -0.62200
O1749       O  0.85247070  0.28075164  0.84017457    -0.57000
O1750       O  0.92345146  0.24262807  0.84106123    -0.93600
O1751       O  0.90530651  0.27583201  0.82851918    -0.92100
O1752       O  0.81074183  0.21768337  0.87936616    -0.92400
O1753       O  0.83448965  0.17977967  0.89399118    -0.91200
C1754       C  0.92526082  0.27058430  0.83751657     1.17800
H1755       H  0.79676015  0.21694498  0.83492389     0.33800
H1756       H  0.84285923  0.13714867  0.85930835     0.44600
H1757       H  0.90405925  0.23554364  0.79823175     0.38200
H1758       H  0.80135465  0.13044911  0.77769936     0.34700
H1759       H  0.77591394  0.12973149  0.89377915     0.26400
H1760       H  0.80714352  0.05720979  0.79761116     0.32400
H1761       H  0.88308081  0.14461909  0.75393853     0.38300
H1762       H  0.79558328  0.20702767  0.89110627     0.32700
H1763       H  0.86119997  0.27792911  0.85362508     0.31600
H1764       H  0.88705823  0.30324098  0.79337343     0.33300
H1765       H  0.90131656  0.24463045  0.75685925     0.32300
H1766       H  0.85559045  0.19568948  0.89093705     0.36300
H1767       H  0.91182326  0.20751635  0.87423367     0.29000
H1768       H  0.73330329  0.15330283  0.77596054     0.33200
H1769       H  0.85338508  0.17481257  0.73017522     0.36100
H1770       H  0.86712397  0.30222210  0.83416673     0.28700
H1771       H  0.90018195  0.17044986  0.87449697     0.41600
H1772       H  0.80199041  0.07689422  0.85819478     0.31600
H1773       H  0.77157768  0.10879105  0.87374136     0.39200
H1774       H  0.86930237  0.23998565  0.75245870     0.31100
H1775       H  0.81175815  0.08277439  0.77932164     0.31200
H1776       H  0.75643299  0.14705580  0.76244342     0.31400
Zr1777     Zr  0.51659709  0.00231545  0.93587398     2.17500
O1778       O  0.54137240  0.00877675  0.90083811    -0.50900
O1779       O  0.47741812  0.00400505  0.91440169    -0.74100
O1780       O  0.51440746  0.45743730  0.92134971    -0.80900
O1781       O  0.56741465  0.09222438  0.94505640    -0.82700
O1782       O  0.49131671  0.41497525  0.94530567    -0.78300
O1783       O  0.55459056  0.05344184  0.92042547    -0.89900
O1784       O  0.94825849  0.00644804  0.93535374    -0.75900
O1785       O  0.48028882  0.47177610  0.95532272    -0.85400
O1786       O  0.50023640  0.03545241  0.95416559    -0.85100
O1787       O  0.53720288  0.47277407  0.96215420    -0.71800
O1788       O  0.55589709  0.03336498  0.95935129    -0.84000
Zr1789     Zr  0.50683818  0.99766065  0.02086938     2.26400
Zr1790     Zr  0.49011507  0.43771300  0.97981602     2.06300
Zr1791     Zr  0.53904088  0.06589453  0.97811106     2.10000
Zr1792     Zr  0.96268866  0.00364877  0.97186012     1.78800
O1793       O  0.58787538  0.10940956  0.98591102    -0.92800
O1794       O  0.91939377  0.46422762  0.96827327    -0.40600
O1795       O  0.49380498  0.03014996  0.99730340    -0.77200
O1796       O  0.97800023  0.47443208  0.99598104    -0.95900
O1797       O  0.52801749  0.46653719  0.00451934    -0.89200
O1798       O  0.55182906  0.03400585  0.00212566    -0.92000
C1799       C  0.96014784  0.00774648  0.91685335     1.01700
C1800       C  0.56956684  0.08246704  0.92638256     1.14600
C1801       C  0.50185234  0.42730501  0.92652514     1.05400
O1802       O  0.94548667  0.40369291  0.97066316    -0.94200
O1803       O  0.97478337  0.41389460  0.01247744    -0.89900
O1804       O  0.98785999  0.45117523  0.03824598    -0.83100
C1805       C  0.97495072  0.42216394  0.03202162     1.12100
O1806       O  0.60525172  0.00815080  0.95566195    -0.96200
Zr1807     Zr  0.56824484  0.00133831  0.98353692     1.88900
O1808       O  0.54451808  0.99377817  0.04285947    -0.72800
O1809       O  0.50386081  0.39478339  0.98523147    -0.52100
O1810       O  0.58400954  0.45593362  0.98828860    -0.96800
O1811       O  0.61646776  0.04837815  0.98772666    -0.54000
O1812       O  0.58048601  0.99463962  0.02013589    -0.73300
C1813       C  0.56887576  0.99246382  0.03889882     0.99000
O1814       O  0.97658544  0.99976166  0.04768621    -0.62200
O1815       O  0.51820995  0.10198275  0.96913824    -0.57000
O1816       O  0.52393346  0.04868808  0.03826619    -0.93600
O1817       O  0.53897430  0.08912196  0.01257978    -0.92100
O1818       O  0.95298987  0.04985387  0.97040503    -0.92400
O1819       O  0.92639072  0.00055094  0.99913349    -0.91200
C1820       C  0.53340044  0.07825280  0.03213059     1.17800
H1821       H  0.49694543  0.04958306  0.94427855     0.33800
H1822       H  0.95944429  0.46054877  0.00359790     0.44600
H1823       H  0.56665257  0.04747177  0.01192099     0.38200
H1824       H  0.54457204  0.46046371  0.95415577     0.34700
H1825       H  0.90794539  0.47372750  0.96101582     0.26400
H1826       H  0.48697241  0.37532039  0.97981098     0.32400
H1827       H  0.60303457  0.46333747  0.99573991     0.38300
H1828       H  0.93292793  0.04161874  0.96439745     0.32700
H1829       H  0.50399321  0.09878587  0.98117210     0.31600
H1830       H  0.58708066  0.12938992  0.98143492     0.33300
H1831       H  0.61707185  0.05343582  0.00306197     0.32300
H1832       H  0.94467448  0.51631888  0.01117764     0.36300
H1833       H  0.97281162  0.01820750  0.04412710     0.29000
H1834       H  0.52537432  0.99677068  0.89078739     0.33200
H1835       H  0.62114859  0.00558282  0.96309580     0.36100
H1836       H  0.53480545  0.12388696  0.97085565     0.28700
H1837       H  0.95867337  0.48215099  0.04301279     0.41600
H1838       H  0.93300646  0.40871437  0.98068974     0.31600
H1839       H  0.92182021  0.45050749  0.95744719     0.39200
H1840       H  0.61482238  0.06622581  0.98009440     0.31100
H1841       H  0.52055849  0.39992752  0.97480843     0.31200
H1842       H  0.56840356  0.49983526  0.91028661     0.31400
Zr1843     Zr  0.67681811  0.34172647  0.69180460     2.17500
O1844       O  0.67221993  0.30531584  0.72199159    -0.50900
O1845       O  0.67693061  0.38207938  0.71583820    -0.74100
O1846       O  0.72385089  0.35416319  0.70786760    -0.80900
O1847       O  0.59275090  0.29032980  0.68463227    -0.82700
O1848       O  0.76158956  0.38048353  0.68305741    -0.78300
O1849       O  0.62925102  0.30486078  0.70897489    -0.89900
O1850       O  0.67455962  0.42164757  0.69545678    -0.75900
O1851       O  0.70879143  0.39294726  0.67499811    -0.85400
O1852       O  0.64446605  0.35941757  0.67575986    -0.85100
O1853       O  0.70755837  0.33164334  0.66634223    -0.71800
O1854       O  0.64824282  0.30095477  0.66723793    -0.84000
Zr1855     Zr  0.67839950  0.36088778  0.60794514     2.26400
Zr1856     Zr  0.73902186  0.38338331  0.64910428     2.06300
Zr1857     Zr  0.61637141  0.31931906  0.65081334     2.10000
Zr1858     Zr  0.67641737  0.41000086  0.65827674     1.78800
O1859       O  0.58116360  0.26506543  0.64107478    -0.92800
O1860       O  0.71856495  0.46302722  0.66260438    -0.40600
O1861       O  0.64758783  0.37050759  0.63329088    -0.77200
O1862       O  0.70729915  0.40190959  0.63234628    -0.95900
O1863       O  0.71070047  0.34338016  0.62420797    -0.89200
O1864       O  0.64641844  0.30980167  0.62477916    -0.92000
C1865       C  0.67551742  0.40859900  0.71344690     1.01700
C1866       C  0.60210512  0.28918034  0.70347331     1.14600
C1867       C  0.75140826  0.36811298  0.70194264     1.05400
O1868       O  0.77350305  0.43963429  0.65495768    -0.94200
O1869       O  0.76253244  0.40750466  0.61382212    -0.89900
O1870       O  0.72582059  0.39378018  0.58964812    -0.83100
C1871       C  0.75312618  0.40809136  0.59483775     1.12100
O1872       O  0.67530731  0.25225943  0.66808671    -0.96200
Zr1873     Zr  0.67880018  0.29246012  0.64104863     1.88900
O1874       O  0.68406669  0.32431289  0.58347066    -0.72800
O1875       O  0.77926865  0.36991698  0.64221140    -0.52100
O1876       O  0.72145919  0.28191091  0.63922207    -0.96800
O1877       O  0.63667185  0.24025156  0.63440626    -0.54000
O1878       O  0.68673570  0.28462675  0.60355496    -0.73300
C1879       C  0.68752368  0.29897664  0.58558903     0.99000
O1880       O  0.67730491  0.39925931  0.58105382    -0.62200
O1881       O  0.57663096  0.33299746  0.65947093    -0.57000
O1882       O  0.63066163  0.34359580  0.59149558    -0.93600
O1883       O  0.59443694  0.32598814  0.61796065    -0.92100
O1884       O  0.63357201  0.42002207  0.66175281    -0.92400
O1885       O  0.67747328  0.44951570  0.63172243    -0.91200
C1886       C  0.60378114  0.33392760  0.59839101     1.17800
H1887       H  0.63145364  0.36144381  0.68641490     0.33800
H1888       H  0.71914540  0.42218004  0.62459232     0.44600
H1889       H  0.63418904  0.29481791  0.61438322     0.38200
H1890       H  0.71942702  0.32341558  0.67357423     0.34700
H1891       H  0.70970333  0.47604041  0.66869820     0.26400
H1892       H  0.79713842  0.38787391  0.64804025     0.32400
H1893       H  0.73807790  0.30230342  0.63336013     0.38300
H1894       H  0.61929883  0.40577336  0.65136863     0.32700
H1895       H  0.55929351  0.31230471  0.66409508     0.31600
H1896       H  0.56179293  0.26533685  0.64038690     0.33300
H1897       H  0.63020321  0.24234889  0.61984420     0.32300
H1898       H  0.67019670  0.43728534  0.61855268     0.36300
H1899       H  0.65967651  0.40210012  0.58491796     0.29000
H1900       H  0.68125359  0.31915512  0.73427233     0.33200
H1901       H  0.67478430  0.23412313  0.66001453     0.36100
H1902       H  0.58269167  0.34535704  0.67268287     0.28700
H1903       H  0.69425275  0.42038384  0.58410652     0.41600
H1904       H  0.77320485  0.44164224  0.67069866     0.31600
H1905       H  0.72977420  0.45995895  0.67449217     0.39200
H1906       H  0.62043785  0.23879514  0.64414995     0.31100
H1907       H  0.77487446  0.35118376  0.65200763     0.31200
H1908       H  0.68569195  0.29607496  0.71838817     0.31400
C1909       C  0.96385679  0.21138047  0.77766896    -0.16000
C1910       C  0.98582302  0.21364060  0.79024363    -0.31200
H1911       H  0.96790927  0.21576577  0.76044772     0.13000
H1912       H  0.98138899  0.20824722  0.80737081     0.13600
C1913       C  0.56666469  0.25288847  0.73555127    -0.12900
C1914       C  0.58099527  0.26874366  0.71995236    -0.14400
C1915       C  0.69223631  0.16319437  0.84488443    -0.16000
C1916       C  0.71066593  0.15713810  0.85721314    -0.31200
H1917       H  0.69911020  0.17209162  0.82841587     0.13000
H1918       H  0.70460097  0.14952352  0.87395379     0.13600
C1919       C  0.61767511  0.19274991  0.80983625    -0.13000
C1920       C  0.60668415  0.18155966  0.83091280     0.09200
C1921       C  0.58036710  0.18181408  0.83798026    -0.13000
C1922       C  0.56506336  0.19235354  0.82421751    -0.13000
C1923       C  0.57567095  0.20294911  0.80301089     0.09200
C1924       C  0.60231473  0.20333392  0.79602110    -0.13000
H1925       H  0.63789435  0.19284857  0.80386769     0.13200
H1926       H  0.57139010  0.17363602  0.85414297     0.13200
H1927       H  0.54474093  0.19197714  0.83023286     0.13200
H1928       H  0.61105151  0.21129899  0.77978659     0.13200
C1929       C  0.59045884  0.10537508  0.91080113    -0.12900
C1930       C  0.60649172  0.12241711  0.89620483    -0.14400
C1931       C  0.96387034  0.32693269  0.83356621    -0.16000
C1932       C  0.95189197  0.29869467  0.84475696    -0.31200
H1933       H  0.95550387  0.32874517  0.81795078     0.13000
H1934       H  0.96207973  0.29611996  0.85935627     0.13600
C1935       C  0.50233790  0.39440485  0.89335199    -0.12900
C1936       C  0.50052564  0.40648818  0.90973611    -0.14400
C1937       C  0.71686563  0.02802874  0.79343417    -0.16000
C1938       C  0.71690567  0.05648320  0.79584199    -0.31200
H1939       H  0.73767713  0.02677567  0.79434143     0.13000
H1940       H  0.69673563  0.05855307  0.79322401     0.13600
C1941       C  0.60748842  0.46633461  0.81939338    -0.13000
C1942       C  0.60912677  0.45772354  0.79820244     0.09200
C1943       C  0.58375041  0.43247059  0.78976433    -0.13000
C1944       C  0.55807572  0.41476183  0.80254891    -0.13000
C1945       C  0.55699809  0.42171865  0.82419854     0.09200
C1946       C  0.58164850  0.44843342  0.83230583    -0.13000
H1947       H  0.62668987  0.48564118  0.82635567     0.13200
H1948       H  0.58412028  0.42547609  0.77340412     0.13200
H1949       H  0.53944410  0.39479043  0.79558532     0.13200
H1950       H  0.58147654  0.45470636  0.84886745     0.13200
C1951       C  0.67218975  0.44166769  0.74584063    -0.12900
C1952       C  0.67438776  0.42523208  0.73210633    -0.14400
C1953       C  0.89047231  0.08764196  0.84643484    -0.16000
C1954       C  0.87645784  0.05649448  0.84138472    -0.31200
H1955       H  0.91157071  0.09720182  0.85443409     0.13000
H1956       H  0.85636561  0.04789236  0.83218033     0.13600
C1957       C  0.94391304  0.00896799  0.89835248    -0.12900
C1958       C  0.92970830  0.00967393  0.88312466    -0.14400
C1959       C  0.80149935  0.30180743  0.79001138    -0.16000
C1960       C  0.78968565  0.27252405  0.78142009    -0.31200
H1961       H  0.81270477  0.30481616  0.80512619     0.13000
H1962       H  0.77725030  0.26773399  0.76681867     0.13600
C1963       C  0.86295077  0.41471234  0.81201185    -0.13000
C1964       C  0.84831410  0.41792891  0.79383926     0.09200
C1965       C  0.85224958  0.44869312  0.78766770    -0.13000
C1966       C  0.86961096  0.47536510  0.79980284    -0.13000
C1967       C  0.88355792  0.47190820  0.81832102     0.09200
C1968       C  0.88038207  0.44132918  0.82404335    -0.13000
H1969       H  0.86070189  0.39145155  0.81718415     0.13200
H1970       H  0.84145328  0.45208230  0.77373337     0.13200
H1971       H  0.87171068  0.49863699  0.79482819     0.13200
H1972       H  0.89077732  0.43773358  0.83814137     0.13200
C1973       C  0.77181784  0.36883817  0.71790267    -0.12900
C1974       C  0.78530620  0.36681485  0.73314592    -0.14400
C1975       C  0.52595835  0.16622420  0.43099688    -0.16000
C1976       C  0.54939573  0.16429694  0.43929475    -0.31200
H1977       H  0.50695986  0.14417469  0.42626519     0.13000
H1978       H  0.56975216  0.18579018  0.44272539     0.13600
C1979       C  0.53504633  0.39896817  0.52609665    -0.16000
C1980       C  0.51168826  0.40105017  0.51782826    -0.31200
H1981       H  0.55529067  0.42085757  0.52917450     0.13000
H1982       H  0.98218525  0.36609579  0.51143590     0.13600
C1983       C  0.53956501  0.27602164  0.49869697    -0.13000
C1984       C  0.53055022  0.30022903  0.49746420     0.09200
C1985       C  0.51884132  0.30488346  0.47824066    -0.13000
C1986       C  0.51614947  0.28581584  0.46074141    -0.13000
C1987       C  0.52512097  0.26157939  0.46196676     0.09200
C1988       C  0.53695100  0.25699753  0.48115730    -0.13000
H1989       H  0.04316255  0.26363724  0.51192256     0.13200
H1990       H  0.51178973  0.32333917  0.47664745     0.13200
H1991       H  0.50685921  0.29003864  0.44624943     0.13200
H1992       H  0.54387805  0.23844416  0.48275401     0.13200
C1993       C  0.56795818  0.33422744  0.56851070    -0.12900
C1994       C  0.58291233  0.33279678  0.58285568    -0.14400
C1995       C  0.90163057  0.37312862  0.43353599    -0.16000
C1996       C  0.90666613  0.38967216  0.45157128    -0.31200
H1997       H  0.91828640  0.38230213  0.42049013     0.13000
H1998       H  0.89045874  0.37951559  0.46487152     0.13600
C1999       C  0.64845531  0.17634627  0.51012624    -0.16000
C2000       C  0.64391289  0.15949485  0.49228455    -0.31200
H2001       H  0.63143653  0.16732635  0.52293784     0.13000
H2002       H  0.66034038  0.16918059  0.47909849     0.13600
C2003       C  0.75115254  0.24468848  0.46968142    -0.13000
C2004       C  0.75007163  0.26221180  0.48733467     0.09200
C2005       C  0.77504677  0.29219972  0.49055941    -0.13000
C2006       C  0.80021134  0.30431828  0.47651898    -0.13000
C2007       C  0.80120945  0.28680528  0.45883330     0.09200
C2008       C  0.77628564  0.25675913  0.45568859    -0.13000
H2009       H  0.73250297  0.22154621  0.46659229     0.13200
H2010       H  0.77520349  0.30644495  0.50396699     0.13200
H2011       H  0.81890318  0.32745394  0.47955578     0.13200
H2012       H  0.77605144  0.24245718  0.44229183     0.13200
C2013       C  0.69278375  0.28559416  0.56640684    -0.12900
C2014       C  0.69643223  0.27297187  0.55075313    -0.14400
C2015       C  0.66876201  0.03743524  0.45088653    -0.16000
C2016       C  0.65504953  0.05337873  0.44198469    -0.31200
H2017       H  0.65807474  0.02078531  0.46450456     0.13000
H2018       H  0.66625868  0.07120437  0.42904415     0.13600
C2019       C  0.87165204  0.47209677  0.51083513    -0.16000
C2020       C  0.89021875  0.49184159  0.49526230    -0.31200
H2021       H  0.87885831  0.45799104  0.52094103     0.13000
H2022       H  0.88334197  0.50695895  0.48589971     0.13600
C2023       C  0.75804185  0.99174365  0.49615032    -0.13000
C2024       C  0.78898047  0.49851407  0.49447509     0.09200
C2025       C  0.80100313  0.51170634  0.47387507    -0.13000
C2026       C  0.78424251  0.02257339  0.45683310    -0.13000
C2027       C  0.75626168  0.01986471  0.46310193     0.09200
C2028       C  0.74353287  0.00433752  0.48301819    -0.13000
H2029       H  0.74718728  0.97993925  0.51128497     0.13200
H2030       H  0.82125653  0.51178783  0.46800505     0.13200
H2031       H  0.79486871  0.03441586  0.44165265     0.13200
H2032       H  0.72214170  0.00173939  0.48854443     0.13200
C2033       C  0.77416546  0.42642062  0.57771348    -0.12900
C2034       C  0.78805154  0.44057196  0.56150044    -0.14400
C2035       C  0.97201329  0.21196899  0.39404760    -0.12900
C2036       C  0.95404417  0.20805537  0.38058737    -0.14400
C2037       C  0.85408944  0.25461670  0.38289753    -0.12900
C2038       C  0.85336139  0.27174732  0.39681310    -0.14400
C2039       C  0.76337015  0.09040202  0.38043879    -0.12900
C2040       C  0.75032630  0.07556056  0.39672978    -0.14400
C2041       C  0.86551602  0.34185516  0.11869933    -0.16000
C2042       C  0.84748868  0.34857190  0.10639478    -0.31200
H2043       H  0.85853899  0.33285335  0.13513355     0.13000
H2044       H  0.85419050  0.35670345  0.08978870     0.13600
C2045       C  0.94727517  0.38063153  0.06439365    -0.12900
C2046       C  0.95935967  0.39756688  0.04856798    -0.14400
C2047       C  0.57465178  0.29550240  0.18354505    -0.16000
C2048       C  0.58999197  0.30981919  0.16526837    -0.31200
H2049       H  0.58500299  0.28772899  0.19589443     0.13000
H2050       H  0.57910163  0.31645807  0.15268732     0.13600
C2051       C  0.99854196  0.32395401  0.14119383    -0.13000
C2052       C  0.98381569  0.30505443  0.15972928     0.09200
C2053       C  0.95371135  0.29693919  0.16366139    -0.13000
C2054       C  0.93877760  0.30760728  0.14965690    -0.13000
C2055       C  0.95340753  0.32669469  0.13121676     0.09200
C2056       C  0.98345750  0.33460285  0.12704343    -0.13000
H2057       H  0.02170867  0.33061350  0.13765190     0.13200
H2058       H  0.94151198  0.28236185  0.17769125     0.13200
H2059       H  0.91562482  0.30082008  0.15337284     0.13200
H2060       H  0.99541742  0.34930460  0.11299254     0.13200
C2061       C  0.96223305  0.22990811  0.23952744    -0.12900
C2062       C  0.97997904  0.24512584  0.22522600    -0.14400
C2063       C  0.83897346  0.44300999  0.17359583    -0.16000
C2064       C  0.83869845  0.46993709  0.18034868    -0.31200
H2065       H  0.85944542  0.44097690  0.17359525     0.13000
H2066       H  0.81749852  0.47033858  0.18196005     0.13600
C2067       C  0.87257779  0.08349328  0.23555622    -0.12900
C2068       C  0.87637012  0.06895359  0.22118526    -0.14400
C2069       C  0.60104466  0.22306344  0.10542306    -0.16000
C2070       C  0.58519624  0.19650646  0.11802018    -0.31200
H2071       H  0.59338177  0.22530784  0.08963105     0.13000
H2072       H  0.59161088  0.19575490  0.13446719     0.13600
C2073       C  0.96483789  0.07457697  0.12654121    -0.13000
C2074       C  0.98758819  0.10472028  0.13235860     0.09200
C2075       C  0.98533559  0.11600514  0.15257979    -0.13000
C2076       C  0.96079386  0.09802849  0.16642996    -0.13000
C2077       C  0.93774081  0.06818193  0.16050733     0.09200
C2078       C  0.94024685  0.05649110  0.14046895    -0.13000
H2079       H  0.96584554  0.06502239  0.11112111     0.13200
H2080       H  0.00238455  0.13899895  0.15767718     0.13200
H2081       H  0.95976196  0.10785261  0.18173995     0.13200
H2082       H  0.92291476  0.03369988  0.13532875     0.13200
C2083       C  0.53847295  0.11560595  0.06427550    -0.12900
C2084       C  0.53744635  0.10051223  0.04867382    -0.14400
C2085       C  0.75347702  0.22567887  0.17125182    -0.16000
C2086       C  0.73640312  0.19563321  0.16461667    -0.31200
H2087       H  0.76963398  0.23011543  0.18357729     0.13000
H2088       H  0.72142179  0.19221452  0.15156564     0.13600
C2089       C  0.75587203  0.13252023  0.22049893    -0.12900
C2090       C  0.76904373  0.13328583  0.23664128    -0.14400
C2091       C  0.65635245  0.43332917  0.10577549    -0.16000
C2092       C  0.68169349  0.43741885  0.11475378    -0.31200
H2093       H  0.64125451  0.41044490  0.09915292     0.13000
H2094       H  0.69693234  0.46096726  0.12051021     0.13600
C2095       C  0.66207964  0.05716796  0.12889952    -0.13000
C2096       C  0.66581699  0.02938662  0.13009197     0.09200
C2097       C  0.68456539  0.02714473  0.14576244    -0.13000
C2098       C  0.69973892  0.05249828  0.15953241    -0.13000
C2099       C  0.69667564  0.08069233  0.15775636     0.09200
C2100       C  0.67733785  0.08245264  0.14247304    -0.13000
H2101       H  0.64779350  0.05974909  0.11716333     0.13200
H2102       H  0.68787606  0.00598842  0.14720882     0.13200
H2103       H  0.71451247  0.05044441  0.17107259     0.13200
H2104       H  0.67419328  0.10369454  0.14077496     0.13200
C2105       C  0.60264445  0.48774352  0.07527388    -0.12900
C2106       C  0.58451309  0.98785692  0.05664951    -0.14400
C2107       C  0.61862450  0.98125079  0.08603562     0.80600
N2108       N  0.62508303  0.95611001  0.08588861    -0.77700
C2109       C  0.64470077  0.95482161  0.09999144     0.83100
N2110       N  0.65733171  0.97845958  0.11427220    -0.77600
C2111       C  0.65578753  0.50970570  0.11877314     0.83200
N2112       N  0.63600956  0.51041764  0.10458636    -0.79400
C2113       C  0.74950587  0.64090190  0.20319623     0.80600
N2114       N  0.73367819  0.61436859  0.19160424    -0.77700
C2115       C  0.72284276  0.61735753  0.17236969     0.83100
N2116       N  0.72834135  0.64697078  0.16487837    -0.77600
C2117       C  0.74426294  0.67360168  0.17606859     0.83200
N2118       N  0.75481247  0.67066344  0.19545688    -0.79400
C2119       C  0.56174027  0.66366124  0.11645025     0.80600
N2120       N  0.53947613  0.64469165  0.13077977    -0.77700
C2121       C  0.01547401  0.61962181  0.12278355     0.83100
N2122       N  0.01622421  0.61023468  0.10244457    -0.77600
C2123       C  0.53973041  0.62496560  0.09034775     0.83200
N2124       N  0.56179249  0.65362241  0.09624836    -0.79400
C2125       C  0.86492190  0.49916208  0.18712020     0.80600
N2126       N  0.89058997  0.51384533  0.17475082    -0.77700
C2127       C  0.91264772  0.54348968  0.17981717     0.83100
N2128       N  0.90856907  0.55800631  0.19723322    -0.77600
C2129       C  0.88310148  0.54356094  0.20945082     0.83200
N2130       N  0.86118055  0.51449789  0.20415010    -0.79400
C2131       C  0.54342082  0.78405901  0.18585661     0.80600
N2132       N  0.52839062  0.76572001  0.20356982    -0.77700
C2133       C  0.99837502  0.75912899  0.20483566     0.83100
N2134       N  0.98487815  0.77011076  0.19081808    -0.77600
C2135       C  0.00002546  0.78898322  0.17342883     0.83200
N2136       N  0.52888659  0.79385504  0.17162044    -0.79400
C2137       C  0.89634929  0.84610746  0.11272498     0.80600
N2138       N  0.91139274  0.83452641  0.12487599    -0.77700
C2139       C  0.93795758  0.83706532  0.11779771     0.83100
N2140       N  0.94957764  0.85166694  0.09829565    -0.77600
C2141       C  0.93463061  0.86325073  0.08595511     0.83200
N2142       N  0.90811253  0.86054520  0.09320851    -0.79400
Zr2143     Zr  0.67361333  0.82906262  0.11839489     2.17500
O2144       O  0.65658241  0.83118428  0.08241686    -0.50900
O2145       O  0.62978701  0.82064137  0.13925015    -0.74100
O2146       O  0.63604723  0.77498795  0.10967787    -0.80900
O2147       O  0.71350448  0.91922736  0.12211230    -0.82700
O2148       O  0.64841428  0.73986057  0.12708648    -0.78300
O2149       O  0.67074141  0.87874384  0.10997042    -0.89900
O2150       O  0.63795595  0.81512201  0.17447950    -0.75900
O2151       O  0.67033328  0.79429961  0.14793597    -0.85400
O2152       O  0.69324957  0.86171878  0.14853150    -0.85100
O2153       O  0.70205311  0.80255895  0.10729642    -0.71800
O2154       O  0.72425577  0.86619842  0.10807199    -0.84000
Zr2155     Zr  0.77092547  0.83869893  0.15771147     2.26400
Zr2156     Zr  0.69978486  0.76928769  0.13769825     2.06300
Zr2157     Zr  0.74380397  0.89803994  0.13869097     2.10000
Zr2158     Zr  0.69000931  0.82686155  0.17774129     1.78800
O2159       O  0.77516268  0.94240688  0.11383556    -0.92800
O2160       O  0.66116474  0.77658363  0.19848336    -0.40600
O2161       O  0.74128000  0.86401381  0.16867464    -0.77200
O2162       O  0.71987768  0.80156146  0.16818326    -0.95900
O2163       O  0.75058098  0.80523492  0.12790702    -0.89200
O2164       O  0.77313888  0.87292676  0.12810318    -0.92000
C2165       C  0.62138844  0.81501814  0.15907493     1.01700
C2166       C  0.68823058  0.90861606  0.11324136     1.14600
C2167       C  0.63068002  0.74645496  0.11606065     1.05400
O2168       O  0.67136013  0.72010269  0.15953155    -0.94200
O2169       O  0.72913503  0.74881689  0.15625693    -0.89900
O2170       O  0.77127480  0.78856501  0.16954128    -0.83100
C2171       C  0.75328503  0.75873023  0.16659117     1.12100
O2172       O  0.73701841  0.84051406  0.06199082    -0.96200
Zr2173     Zr  0.75310993  0.83965199  0.09847613     1.88900
O2174       O  0.81336322  0.84252790  0.13621625    -0.72800
O2175       O  0.70449038  0.73761022  0.10896936    -0.52100
O2176       O  0.75051333  0.79331403  0.08002416    -0.96800
O2177       O  0.78509232  0.88821076  0.07689569    -0.54000
O2178       O  0.80305790  0.84576572  0.10117018    -0.73300
C2179       C  0.82008923  0.84549684  0.11600078     0.99000
O2180       O  0.78966806  0.84279649  0.19384938    -0.62200
O2181       O  0.73939224  0.93290002  0.16522537    -0.57000
O2182       O  0.80948967  0.89350076  0.16505638    -0.93600
O2183       O  0.79099248  0.92770597  0.15550268    -0.92100
O2184       O  0.68882683  0.87091026  0.19678133    -0.92400
O2185       O  0.70532628  0.82843222  0.21462308    -0.91200
C2186       C  0.81122246  0.92177242  0.16334273     1.17800
H2187       H  0.68216679  0.87314210  0.15202158     0.33800
H2188       H  0.71943456  0.78818488  0.18035796     0.44600
H2189       H  0.79341946  0.88894697  0.12469124     0.38200
H2190       H  0.69305834  0.78944813  0.09518654     0.34700
H2191       H  0.64822147  0.78112125  0.20838391     0.26400
H2192       H  0.71847097  0.72998979  0.11431630     0.32400
H2193       H  0.77060518  0.80079812  0.07333261     0.38300
H2194       H  0.66817213  0.86199079  0.20272641     0.32700
H2195       H  0.75031358  0.95489802  0.15858848     0.31600
H2196       H  0.76661004  0.93534609  0.09962254     0.33300
H2197       H  0.79871178  0.88257495  0.06858455     0.32300
H2198       H  0.72712396  0.83629201  0.21338480     0.36300
H2199       H  0.78635640  0.85993837  0.20036597     0.29000
H2200       H  0.63491336  0.82378269  0.08432615     0.33200
H2201       H  0.75135949  0.83746449  0.05257707     0.36100
H2202       H  0.71819951  0.92807788  0.16531975     0.28700
H2203       H  0.77516641  0.82285455  0.20172876     0.41600
H2204       H  0.67027774  0.72760888  0.17403820     0.31600
H2205       H  0.64728035  0.76171396  0.18816148     0.39200
H2206       H  0.79804614  0.90395073  0.08719993     0.31100
H2207       H  0.68497239  0.71794586  0.10908099     0.31200
H2208       H  0.65807184  0.81368118  0.07484225     0.31400
Zr2209     Zr  0.86403124  0.66859130  0.35273154     2.17500
O2210       O  0.86174071  0.64605282  0.38884347    -0.50900
O2211       O  0.85927923  0.71212661  0.36994249    -0.74100
O2212       O  0.91244530  0.68953611  0.36900682    -0.80900
O2213       O  0.78101554  0.61032111  0.34687376    -0.82700
O2214       O  0.94936225  0.71166451  0.34315990    -0.78300
O2215       O  0.81785721  0.63071676  0.37098792    -0.89900
O2216       O  0.85966842  0.74744754  0.34419274    -0.75900
O2217       O  0.89486005  0.71511324  0.33090048    -0.85400
O2218       O  0.83058750  0.67929842  0.33180566    -0.85100
O2219       O  0.89597346  0.65367735  0.33211367    -0.71800
O2220       O  0.83680232  0.62112867  0.33272084    -0.84000
Zr2221     Zr  0.86650635  0.66447934  0.26800476     2.26400
Zr2222     Zr  0.92563056  0.70014364  0.30919843     2.06300
Zr2223     Zr  0.80395290  0.63245289  0.31117023     2.10000
Zr2224     Zr  0.86167320  0.72554383  0.30974751     1.78800
O2225       O  0.77045505  0.57581628  0.30566357    -0.92800
O2226       O  0.90448682  0.77910902  0.30810715    -0.40600
O2227       O  0.83477146  0.67908535  0.28897660    -0.77200
O2228       O  0.89339517  0.71235463  0.28767128    -0.95900
O2229       O  0.89931702  0.65330404  0.28903812    -0.89200
O2230       O  0.83537981  0.61791213  0.28997330    -0.92000
C2231       C  0.85863393  0.73808859  0.36379458     1.01700
C2232       C  0.79079654  0.61291279  0.36601519     1.14600
C2233       C  0.93988401  0.70425871  0.36263525     1.05400
O2234       O  0.96284906  0.75665302  0.30878945    -0.94200
O2235       O  0.95012837  0.71631993  0.27396717    -0.89900
O2236       O  0.91492858  0.69171606  0.24922751    -0.83100
C2237       C  0.94180033  0.70974268  0.25466372     1.12100
O2238       O  0.87122878  0.57898080  0.34386854    -0.96200
Zr2239     Zr  0.86862450  0.60739950  0.31131897     1.88900
O2240       O  0.86921540  0.61994818  0.25076999    -0.72800
O2241       O  0.96279358  0.68102422  0.30769032    -0.52100
O2242       O  0.91424593  0.60217338  0.31138260    -0.96800
O2243       O  0.82832912  0.55223722  0.31359627    -0.54000
O2244       O  0.87208574  0.58657722  0.27672089    -0.73300
C2245       C  0.87173407  0.59510176  0.25708712     0.99000
O2246       O  0.86676321  0.69561229  0.23582301    -0.62200
O2247       O  0.76232587  0.64441857  0.31562703    -0.57000
O2248       O  0.81956424  0.64423076  0.25036382    -0.93600
O2249       O  0.78327549  0.63344979  0.27602112    -0.92100
O2250       O  0.81710597  0.73263945  0.30934318    -0.92400
O2251       O  0.85968493  0.75770212  0.27915633    -0.91200
C2252       C  0.79294334  0.63731651  0.25638369     1.17800
H2253       H  0.81696011  0.68317238  0.34077906     0.33800
H2254       H  0.90492848  0.73044905  0.27788909     0.44600
H2255       H  0.82352727  0.59982190  0.28133675     0.38200
H2256       H  0.90848881  0.64875078  0.34136330     0.34700
H2257       H  0.89598101  0.79403869  0.31033803     0.26400
H2258       H  0.98218215  0.70085807  0.30759037     0.32400
H2259       H  0.90853277  0.58049807  0.30594871     0.38300
H2260       H  0.80112409  0.71158731  0.30507278     0.32700
H2261       H  0.74456267  0.62309715  0.31780413     0.31600
H2262       H  0.75131597  0.57520800  0.30192579     0.33300
H2263       H  0.81906625  0.54870982  0.29943558     0.32300
H2264       H  0.85595612  0.74363439  0.26682261     0.36300
H2265       H  0.85007663  0.70074405  0.23803225     0.29000
H2266       H  0.87042872  0.66470919  0.39823405     0.33200
H2267       H  0.87212684  0.55950662  0.33904199     0.36100
H2268       H  0.76493256  0.65443191  0.32971583     0.28700
H2269       H  0.88460933  0.71686660  0.23660987     0.41600
H2270       H  0.95511401  0.76771748  0.29897755     0.31600
H2271       H  0.91523595  0.78014038  0.32138716     0.39200
H2272       H  0.81326875  0.55294815  0.32357839     0.31100
H2273       H  0.96126742  0.67033069  0.32188144     0.31200
H2274       H  0.87605942  0.63720235  0.38867935     0.31400
C2275       C  0.84052353  0.96877873  0.51256575     0.80600
N2276       N  0.82785204  0.98211550  0.49906511    -0.77700
C2277       C  0.80071889  0.98016917  0.50432268     0.83100
N2278       N  0.78681144  0.96504494  0.52323227    -0.77600
C2279       C  0.79939936  0.95201160  0.53665047     0.83200
N2280       N  0.82607000  0.95378672  0.53125077    -0.79400
C2281       C  0.70301686  0.54681655  0.44569440     0.80600
N2282       N  0.71737606  0.53502610  0.45865950    -0.77700
C2283       C  0.74473299  0.53821048  0.45284252     0.83100
N2284       N  0.75745382  0.55318147  0.43359050    -0.77600
C2285       C  0.74325803  0.56487366  0.42045194     0.83200
N2286       N  0.71614240  0.56175847  0.42656819    -0.79400
C2287       C  0.67511822  0.71397886  0.50723287     0.80600
N2288       N  0.69924941  0.72644811  0.49330974    -0.77700
C2289       C  0.72262741  0.75630162  0.49614638     0.83100
N2290       N  0.72136143  0.77353533  0.51309356    -0.77600
C2291       C  0.69720998  0.76112928  0.52691136     0.83200
N2292       N  0.67442508  0.73148096  0.52393394    -0.79400
C2293       C  0.87758260  0.84497879  0.42799838     0.80600
N2294       N  0.85293251  0.83461392  0.44139092    -0.77700
C2295       C  0.82876017  0.80523687  0.43899222     0.83100
N2296       N  0.82977928  0.78626296  0.42318757    -0.77600
C2297       C  0.85419711  0.79631671  0.40989899     0.83200
N2298       N  0.87794120  0.82565497  0.41228276    -0.79400
C2299       C  0.54774566  0.83408205  0.54992398     0.80600
N2300       N  0.54350143  0.81454676  0.53335658    -0.77700
C2301       C  0.53301025  0.81976995  0.51461067     0.83100
N2302       N  0.52668883  0.84494938  0.51266189    -0.77600
C2303       C  0.53096797  0.86469157  0.52928334     0.83200
N2304       N  0.54228009  0.85964418  0.54768464    -0.79400
C2305       C  0.50325895  0.72492943  0.40889324     0.80600
N2306       N  0.51071983  0.70083366  0.40967016    -0.77700
C2307       C  0.52660990  0.69803305  0.42601735     0.83100
N2308       N  0.53397391  0.71893010  0.44232871    -0.77600
C2309       C  0.52614851  0.74315831  0.44167699     0.83200
N2310       N  0.51064121  0.74575037  0.42490485    -0.79400
Zr2311     Zr  0.97552408  0.97183259  0.49382652     2.17500
O2312       O  0.95305883  0.95024508  0.52925574    -0.50900
O2313       O  0.93958640  0.92986216  0.47285634    -0.74100
O2314       O  0.92898584  0.97663539  0.49719180    -0.80900
O2315       O  0.53692292  0.94812106  0.50047075    -0.82700
O2316       O  0.93764544  0.52215371  0.47959151    -0.78300
O2317       O  0.98329147  0.92550769  0.50434436    -0.89900
O2318       O  0.95517729  0.94017291  0.43780035    -0.75900
O2319       O  0.97155099  0.99809464  0.46188875    -0.85400
O2320       O  0.50904066  0.97049062  0.46855333    -0.85100
O2321       O  0.99229453  0.52611804  0.50244420    -0.71800
O2322       O  0.53184822  0.00645866  0.50645066    -0.84000
Zr2323     Zr  0.57366318  0.57699870  0.44949941     2.26400
Zr2324     Zr  0.98966114  0.55051920  0.46891976     2.06300
Zr2325     Zr  0.55985729  0.99730971  0.47857607     2.10000
Zr2326     Zr  0.50203015  0.99262814  0.43601740     1.78800
O2327       O  0.59512473  0.99772762  0.50468333    -0.92800
O2328       O  0.96903959  0.99957453  0.41066539    -0.40600
O2329       O  0.55471661  0.52020249  0.44449248    -0.77200
O2330       O  0.52205905  0.55003619  0.43966661    -0.95900
O2331       O  0.54618658  0.58732037  0.47673062    -0.89200
O2332       O  0.58170808  0.55616423  0.48244256    -0.92000
C2333       C  0.93652584  0.92296100  0.45306682     1.01700
C2334       C  0.51086793  0.92884037  0.50832437     1.14600
C2335       C  0.92034930  0.99673290  0.48957253     1.05400
O2336       O  0.96088882  0.55643345  0.43990256    -0.94200
O2337       O  0.51998863  0.61243506  0.45044795    -0.89900
O2338       O  0.56809394  0.62533569  0.44148209    -0.83100
C2339       C  0.54623665  0.63200151  0.44307126     1.12100
O2340       O  0.53930328  0.55891726  0.54731133    -0.96200
Zr2341     Zr  0.55473590  0.56726309  0.50946751     1.88900
O2342       O  0.61342631  0.62210273  0.46614910    -0.72800
O2343       O  0.97955926  0.58493513  0.49264835    -0.52100
O2344       O  0.54223162  0.60838341  0.52211699    -0.96800
O2345       O  0.58997813  0.56168034  0.53306812    -0.54000
O2346       O  0.60073199  0.61810961  0.50166677    -0.73300
C2347       C  0.61799812  0.63265506  0.48515987     0.99000
O2348       O  0.58850847  0.59278910  0.41195216    -0.62200
O2349       O  0.56475253  0.95746138  0.45690138    -0.57000
O2350       O  0.61862991  0.57055136  0.44275128    -0.93600
O2351       O  0.61257204  0.52569772  0.46174393    -0.92100
O2352       O  0.51321621  0.95182889  0.42115305    -0.92400
O2353       O  0.51967419  0.00421482  0.39869160    -0.91200
C2354       C  0.62801977  0.55072044  0.44949396     1.17800
H2355       H  0.50236143  0.94772595  0.46714771     0.33800
H2356       H  0.51994179  0.55955830  0.42632301     0.44600
H2357       H  0.60259511  0.56579890  0.48560798     0.38200
H2358       H  0.97928951  0.52813803  0.51311651     0.34700
H2359       H  0.96132630  0.98043504  0.40168718     0.26400
H2360       H  0.99943183  0.60288514  0.49546515     0.32400
H2361       H  0.55603901  0.62850639  0.51408130     0.38300
H2362       H  0.49599950  0.93884990  0.41227326     0.32700
H2363       H  0.57589320  0.94928628  0.46585277     0.31600
H2364       H  0.60031069  0.98083565  0.50014114     0.33300
H2365       H  0.60879346  0.56978260  0.52441772     0.32300
H2366       H  0.53957889  0.52212553  0.39877028     0.36300
H2367       H  0.59108803  0.57479410  0.40611124     0.29000
H2368       H  0.93239952  0.93387276  0.52654229     0.33200
H2369       H  0.55392013  0.57840680  0.55436247     0.36100
H2370       H  0.54442773  0.93911427  0.45659208     0.28700
H2371       H  0.57036866  0.59115362  0.40519208     0.41600
H2372       H  0.97154605  0.55601054  0.42657021     0.31600
H2373       H  0.95162731  0.99648624  0.41973686     0.39200
H2374       H  0.58279242  0.53814975  0.53472490     0.31100
H2375       H  0.97011696  0.59488563  0.48345610     0.31200
H2376       H  0.95091850  0.96800489  0.53593021     0.31400
C2377       C  0.79758652  0.86103543  0.74678515     0.80600
N2378       N  0.81496626  0.88579200  0.75912741    -0.77700
C2379       C  0.82454326  0.87998824  0.77815056     0.83100
N2380       N  0.81603703  0.84911950  0.78476849    -0.77600
C2381       C  0.79838677  0.82411916  0.77260165     0.83200
N2382       N  0.78936678  0.83016693  0.75345845    -0.79400
C2383       C  0.92871149  0.52239856  0.86236096     0.80600
N2384       N  0.90302508  0.98498098  0.85120748    -0.77700
C2385       C  0.88644802  0.98463330  0.83421723     0.83100
N2386       N  0.89790443  0.52723366  0.82868015    -0.77600
C2387       C  0.91101758  0.55239501  0.84177718     0.83200
N2388       N  0.92640737  0.54986394  0.85870058    -0.79400
C2389       C  0.68790794  0.51067510  0.77915743     0.80600
N2390       N  0.69530911  0.98285760  0.77008403    -0.77700
C2391       C  0.67307761  0.95432888  0.76430567     0.83100
N2392       N  0.64671951  0.94105908  0.77542283    -0.77600
C2393       C  0.64206289  0.95604525  0.79232179     0.83200
N2394       N  0.66441905  0.98514625  0.79792084    -0.79400
C2395       C  0.49321182  0.83049259  0.85382451     0.80600
N2396       N  0.51726863  0.84943225  0.84086450    -0.77700
C2397       C  0.53604366  0.88034375  0.84595667     0.83100
N2398       N  0.53032002  0.89210775  0.86412955    -0.77600
C2399       C  0.50631456  0.87332078  0.87705760     0.83200
N2400       N  0.48779465  0.84271401  0.87187903    -0.79400
C2401       C  0.66476370  0.66249249  0.85307262     0.80600
N2402       N  0.65011439  0.67314477  0.83969978    -0.77700
C2403       C  0.62320602  0.67061855  0.84562892     0.83100
N2404       N  0.61088173  0.65701756  0.86517868    -0.77600
C2405       C  0.62529441  0.64630187  0.87868754     0.83200
N2406       N  0.65221646  0.64886124  0.87261063    -0.79400
C2407       C  0.51467372  0.71556110  0.78045416     0.80600
N2408       N  0.52710452  0.73185086  0.76152609    -0.77700
C2409       C  0.55539633  0.73843027  0.75563576     0.83100
N2410       N  0.57116882  0.72875215  0.76869289    -0.77600
C2411       C  0.55881113  0.71248549  0.78762585     0.83200
N2412       N  0.53063458  0.70613989  0.79330120    -0.79400
Zr2413     Zr  0.78615148  0.67793307  0.80370043     2.17500
O2414       O  0.76268799  0.68321571  0.77113998    -0.50900
O2415       O  0.74646242  0.66980305  0.82894128    -0.74100
O2416       O  0.74623411  0.62427625  0.79545363    -0.80900
O2417       O  0.82635169  0.76636342  0.81597522    -0.82700
O2418       O  0.76535194  0.58936540  0.80007591    -0.78300
O2419       O  0.78654857  0.72986618  0.79819768    -0.89900
O2420       O  0.75754957  0.65668154  0.86168841    -0.75900
O2421       O  0.78707193  0.63711101  0.82655651    -0.85400
O2422       O  0.80734653  0.70239931  0.83643749    -0.85100
O2423       O  0.81538074  0.65826727  0.78430739    -0.71800
O2424       O  0.83555888  0.71962240  0.79450300    -0.84000
Zr2425     Zr  0.88803361  0.68352034  0.83073756     2.26400
Zr2426     Zr  0.81733507  0.61858308  0.80814188     2.06300
Zr2427     Zr  0.85676767  0.74253802  0.82769359     2.10000
Zr2428     Zr  0.80778657  0.66127126  0.85904354     1.78800
O2429       O  0.88889601  0.79563405  0.81133212    -0.92800
O2430       O  0.77616229  0.60607543  0.87226950    -0.40600
O2431       O  0.85805413  0.70193072  0.85063347    -0.77200
O2432       O  0.83860903  0.64207778  0.84113033    -0.95900
O2433       O  0.86635205  0.65917229  0.79826559    -0.89200
O2434       O  0.88676395  0.72459659  0.80822307    -0.92000
C2435       C  0.74034372  0.66166156  0.84890429     1.01700
C2436       C  0.80308173  0.75823741  0.80495478     1.14600
C2437       C  0.74401213  0.59575788  0.79569835     1.05400
O2438       O  0.79568174  0.56652082  0.82746468    -0.94200
O2439       O  0.85179827  0.59713464  0.81393572    -0.91700
O2440       O  0.89289162  0.63411230  0.83014465    -0.83100
C2441       C  0.87696522  0.60609866  0.82268428     1.12100
O2442       O  0.84254331  0.70756779  0.74335281    -0.96200
Zr2443     Zr  0.86503927  0.70004977  0.77578277     1.88900
O2444       O  0.92926214  0.69800071  0.80484559    -0.72800
O2445       O  0.81569735  0.59475807  0.77367215    -0.52100
O2446       O  0.86469461  0.66379363  0.74841269    -0.96800
O2447       O  0.89174290  0.75470453  0.76012146    -0.54000
O2448       O  0.91629114  0.70950759  0.77230523    -0.73300
C2449       C  0.93478224  0.70676401  0.78485474     0.99000
O2450       O  0.91047374  0.67545232  0.86307966    -0.62200
O2451       O  0.84576394  0.76448207  0.85959254    -0.57000
O2452       O  0.92545701  0.73479064  0.84398918    -0.93600
O2453       O  0.90265908  0.76647253  0.84675648    -0.92100
O2454       O  0.81095783  0.69632693  0.88809844    -0.92400
O2455       O  0.82645668  0.64856657  0.89165394    -0.91200
C2456       C  0.92470285  0.76067605  0.84939411     1.17800
H2457       H  0.79650737  0.71236147  0.84305648     0.33800
H2458       H  0.84007424  0.62609624  0.85040561     0.44600
H2459       H  0.90647992  0.74225767  0.80533252     0.38200
H2460       H  0.80558977  0.64847375  0.77135028     0.34700
H2461       H  0.76426672  0.60803423  0.88435491     0.26400
H2462       H  0.83491119  0.59419265  0.77220627     0.32400
H2463       H  0.87584777  0.65307833  0.75451714     0.38300
H2464       H  0.79603726  0.70377535  0.88500426     0.32700
H2465       H  0.85426883  0.75746761  0.87152704     0.31600
H2466       H  0.89008120  0.81095203  0.82235293     0.33300
H2467       H  0.91306493  0.76183730  0.76269046     0.32300
H2468       H  0.84743210  0.66557822  0.89204710     0.36300
H2469       H  0.90730388  0.68873700  0.87388058     0.29000
H2470       H  0.74099572  0.66981404  0.77395006     0.33200
H2471       H  0.85780359  0.71286735  0.73170317     0.36100
H2472       H  0.85873685  0.78804508  0.85794615     0.28700
H2473       H  0.89713020  0.65302952  0.86825719     0.41600
H2474       H  0.79446377  0.57152855  0.84264414     0.31600
H2475       H  0.76159595  0.59608093  0.86093165     0.39200
H2476       H  0.88632703  0.76783251  0.76965726     0.31100
H2477       H  0.80063224  0.57186891  0.77588730     0.31200
H2478       H  0.76805070  0.67164632  0.76026012     0.31400
Zr2479     Zr  0.52712657  0.50772921  0.93852861     2.17500
O2480       O  0.55936616  0.51417043  0.90729442    -0.50900
O2481       O  0.49005946  0.51023211  0.91519068    -0.74100
O2482       O  0.50603392  0.95159698  0.91993354    -0.80900
O2483       O  0.57509751  0.59788445  0.94853880    -0.82700
O2484       O  0.48570890  0.91022468  0.94488005    -0.78300
O2485       O  0.56210605  0.56016532  0.92308279    -0.89900
O2486       O  0.95761110  0.51203108  0.93394194    -0.75900
O2487       O  0.47146636  0.96571746  0.95445304    -0.85400
O2488       O  0.51118798  0.54146017  0.95645814    -0.85100
O2489       O  0.53030215  0.97001988  0.95934084    -0.71800
O2490       O  0.56533407  0.53706988  0.96320931    -0.84000
Zr2491     Zr  0.51197489  0.49986826  0.02272485     2.26400
Zr2492     Zr  0.48477949  0.93421383  0.97871037     2.06300
Zr2493     Zr  0.54860463  0.56994807  0.98185935     2.10000
Zr2494     Zr  0.96915441  0.50907963  0.97143112     1.78800
O2495       O  0.59913086  0.60921478  0.99010732    -0.92800
O2496       O  0.91463237  0.95597453  0.96895410    -0.40600
O2497       O  0.50171144  0.53452603  0.99914708    -0.77200
O2498       O  0.97364262  0.97073979  0.99646887    -0.95900
O2499       O  0.52347867  0.96517601  0.00229929    -0.89200
O2500       O  0.55855646  0.53562993  0.00567307    -0.92000
C2501       C  0.97098631  0.51447884  0.91581306     1.01700
C2502       C  0.57652856  0.58903381  0.92942792     1.14600
C2503       C  0.49521278  0.92184183  0.92584549     1.05400
O2504       O  0.94018440  0.89891735  0.97260946    -0.94200
O2505       O  0.97245227  0.91141195  0.01321548    -0.89900
O2506       O  0.98627473  0.94971392  0.03833875    -0.83100
C2507       C  0.97350160  0.92043505  0.03263583     1.12100
O2508       O  0.60798004  0.50413468  0.95812514    -0.96200
Zr2509     Zr  0.57436885  0.50221484  0.98723953     1.88900
O2510       O  0.54847739  0.49564051  0.04583026    -0.72800
O2511       O  0.50159655  0.89374302  0.98439806    -0.52100
O2512       O  0.57679364  0.95433994  0.98317966    -0.96800
O2513       O  0.62349761  0.54768419  0.99173490    -0.54000
O2514       O  0.58483789  0.49505740  0.02422126    -0.73300
C2515       C  0.57272548  0.49378446  0.04266211     0.99000
O2516       O  0.97762464  0.49989585  0.04770009    -0.62200
O2517       O  0.53173335  0.61031014  0.97591084    -0.57000
O2518       O  0.52824264  0.54931647  0.04149859    -0.93600
O2519       O  0.54673840  0.59135403  0.01689631    -0.92100
O2520       O  0.96151463  0.55659350  0.96876441    -0.92400
O2521       O  0.93270936  0.50561784  0.99871114    -0.91200
C2522       C  0.53894777  0.57924425  0.03610853     1.17800
H2523       H  0.50906254  0.55623529  0.94642963     0.33800
H2524       H  0.95559434  0.95693056  0.00466804     0.44600
H2525       H  0.57288691  0.54815613  0.01605310     0.38200
H2526       H  0.53810593  0.95813912  0.95131187     0.34700
H2527       H  0.90138132  0.96421245  0.96303782     0.26400
H2528       H  0.48533929  0.87353448  0.97923377     0.32400
H2529       H  0.59277007  0.95879529  0.99346073     0.38300
H2530       H  0.94019069  0.54817165  0.96554122     0.32700
H2531       H  0.54955340  0.63114997  0.97808772     0.31600
H2532       H  0.59881911  0.63016553  0.98983213     0.33300
H2533       H  0.62265378  0.55558361  0.00614970     0.32300
H2534       H  0.93840647  0.01105229  0.01162465     0.36300
H2535       H  0.97497224  0.51932086  0.04521232     0.29000
H2536       H  0.54593681  0.50445260  0.89528763     0.33200
H2537       H  0.62633929  0.50666603  0.96501384     0.36100
H2538       H  0.52842519  0.61046433  0.96033774     0.28700
H2539       H  0.95758894  0.98073991  0.04448573     0.41600
H2540       H  0.93766742  0.89965325  0.95694627     0.31600
H2541       H  0.91762029  0.94399181  0.95713728     0.39200
H2542       H  0.62432006  0.56477945  0.98167751     0.31100
H2543       H  0.51832906  0.89964771  0.97386749     0.31200
H2544       H  0.55291848  0.99664995  0.90196705     0.31400
Zr2545     Zr  0.67757539  0.84118203  0.68837124     2.17500
O2546       O  0.67513476  0.80260836  0.71634828    -0.50900
O2547       O  0.67932109  0.88124244  0.71317042    -0.74100
O2548       O  0.72548923  0.85560492  0.70327496    -0.80900
O2549       O  0.59358099  0.79201800  0.68433274    -0.82700
O2550       O  0.76208854  0.88038219  0.67742487    -0.78300
O2551       O  0.63116054  0.80729177  0.70782037    -0.89900
O2552       O  0.67805794  0.92236619  0.69387583    -0.75900
O2553       O  0.70920993  0.89222400  0.67136855    -0.85400
O2554       O  0.64507814  0.85983558  0.67399266    -0.85100
O2555       O  0.70663688  0.83060306  0.66188589    -0.71800
O2556       O  0.64760233  0.80061707  0.66411494    -0.84000
Zr2557     Zr  0.67519014  0.86129096  0.60522160     2.26400
Zr2558     Zr  0.73769936  0.88214106  0.64440782     2.06300
Zr2559     Zr  0.61527027  0.81988427  0.64966715     2.10000
Zr2560     Zr  0.67667594  0.91038764  0.65632094     1.78800
O2561       O  0.57592976  0.76591886  0.64331518    -0.92800
O2562       O  0.71941627  0.96341568  0.65916369    -0.40600
O2563       O  0.64592511  0.87105115  0.63181952    -0.77200
O2564       O  0.70589050  0.90178305  0.62923411    -0.95900
O2565       O  0.70784856  0.84298334  0.61967740    -0.89200
O2566       O  0.64368269  0.81018293  0.62232363    -0.92000
C2567       C  0.67900914  0.90839952  0.71151851     1.01700
C2568       C  0.60372286  0.79169394  0.70304086     1.14600
C2569       C  0.75272303  0.86914689  0.69660305     1.05400
O2570       O  0.77408436  0.93770611  0.65025579    -0.94200
O2571       O  0.75986865  0.90527743  0.60890811    -0.89900
O2572       O  0.72206002  0.89230112  0.58573385    -0.83100
C2573       C  0.74965971  0.90569354  0.59023793     1.12100
O2574       O  0.67040915  0.74814445  0.66133686    -0.96200
Zr2575     Zr  0.67668898  0.79211098  0.63656196     1.88900
O2576       O  0.67957800  0.82570638  0.57938532    -0.72800
O2577       O  0.77459412  0.86437285  0.63564335    -0.52100
O2578       O  0.72041660  0.78332043  0.63647883    -0.96800
O2579       O  0.63564610  0.74073488  0.62693674    -0.54000
O2580       O  0.68614294  0.78772687  0.59856253    -0.73300
C2581       C  0.68519932  0.80176436  0.58085869     0.99000
O2582       O  0.67433611  0.90194340  0.58036199    -0.62200
O2583       O  0.58034879  0.83995155  0.65955519    -0.57000
O2584       O  0.62686119  0.84412742  0.58990099    -0.93600
O2585       O  0.59134789  0.82287114  0.61687778    -0.92100
O2586       O  0.63432879  0.92068423  0.66227609    -0.92400
O2587       O  0.67692194  0.94972745  0.62993423    -0.91200
C2588       C  0.59993885  0.83211600  0.59731242     1.17800
H2589       H  0.63275345  0.86207877  0.68511387     0.33800
H2590       H  0.71767098  0.92196794  0.62136820     0.44600
H2591       H  0.63074770  0.79530176  0.61215410     0.38200
H2592       H  0.71869696  0.82231107  0.66877222     0.34700
H2593       H  0.71127547  0.97651793  0.66612112     0.26400
H2594       H  0.79310353  0.88002784  0.64227397     0.32400
H2595       H  0.71716858  0.76798855  0.62498774     0.38300
H2596       H  0.64298372  0.94239823  0.66828422     0.32700
H2597       H  0.56081826  0.82350965  0.65469763     0.31600
H2598       H  0.55717077  0.76722210  0.64568893     0.33300
H2599       H  0.63162344  0.74373971  0.61180765     0.32300
H2600       H  0.66112783  0.93689050  0.61996699     0.36300
H2601       H  0.65698348  0.90472609  0.58513886     0.29000
H2602       H  0.68365774  0.81535496  0.72916063     0.33200
H2603       H  0.67189845  0.73178807  0.65239665     0.36100
H2604       H  0.57842944  0.83788787  0.67540290     0.28700
H2605       H  0.69166710  0.92248205  0.58393062     0.41600
H2606       H  0.76925848  0.95078051  0.63987748     0.31600
H2607       H  0.73179468  0.96038733  0.67017609     0.39200
H2608       H  0.61812128  0.73913057  0.63518618     0.31100
H2609       H  0.76819526  0.84406965  0.64424892     0.31200
H2610       H  0.68967380  0.79524473  0.71173948     0.31400
C2611       C  0.96444494  0.71429244  0.77539552    -0.16000
C2612       C  0.98386801  0.70813014  0.78633779    -0.31200
H2613       H  0.97014528  0.72447574  0.75910939     0.13000
H2614       H  0.97762860  0.69728635  0.80244841     0.13600
C2615       C  0.56918431  0.75642445  0.73590140    -0.12900
C2616       C  0.58325623  0.77216372  0.72016218    -0.14400
C2617       C  0.69356658  0.66512062  0.84550472    -0.16000
C2618       C  0.71159722  0.65815142  0.85774119    -0.31200
H2619       H  0.70025715  0.67362522  0.82895380     0.13000
H2620       H  0.70538533  0.65021217  0.87441737     0.13600
C2621       C  0.61972425  0.69621757  0.81052842    -0.13000
C2622       C  0.60703607  0.68163624  0.83070286     0.09200
C2623       C  0.57847738  0.67731963  0.83643818    -0.13000
C2624       C  0.56298013  0.68726911  0.82241738    -0.13000
C2625       C  0.57562220  0.70192911  0.80226628     0.09200
C2626       C  0.60420039  0.70629252  0.79647559    -0.13000
H2627       H  0.64167589  0.69987795  0.80555753     0.13200
H2628       H  0.56794301  0.66613559  0.85178570     0.13200
H2629       H  0.54102169  0.68348635  0.82748406     0.13200
H2630       H  0.61457259  0.71742235  0.78108011     0.13200
C2631       C  0.59584690  0.61284993  0.91363514    -0.12900
C2632       C  0.61057005  0.62960680  0.89848584    -0.14400
C2633       C  0.97786559  0.80006269  0.84936456    -0.16000
C2634       C  0.95071657  0.78646295  0.85911874    -0.31200
H2635       H  0.98174439  0.78945470  0.83515169     0.13000
H2636       H  0.94617261  0.79842503  0.87227522     0.13600
C2637       C  0.49952745  0.88659906  0.89542907    -0.12900
C2638       C  0.49557353  0.90063432  0.90997045    -0.14400
C2639       C  0.71468997  0.54057350  0.78412584    -0.16000
C2640       C  0.71509904  0.56785883  0.79078233    -0.31200
H2641       H  0.73576144  0.54029325  0.78112247     0.13000
H2642       H  0.69458582  0.56968393  0.79231159     0.13600
C2643       C  0.60878723  0.95078675  0.82453631    -0.13000
C2644       C  0.61365977  0.93883648  0.80526055     0.09200
C2645       C  0.59174481  0.90854535  0.79895005    -0.13000
C2646       C  0.56649413  0.88998530  0.81196705    -0.13000
C2647       C  0.56217505  0.90117890  0.83166402     0.09200
C2648       C  0.58327342  0.93216929  0.83758470    -0.13000
H2649       H  0.62504079  0.97405720  0.82984229     0.13200
H2650       H  0.59438841  0.89856216  0.78411226     0.13200
H2651       H  0.55058035  0.86654127  0.80668033     0.13200
H2652       H  0.58048791  0.94175358  0.85255914     0.13200
C2653       C  0.67723038  0.93806653  0.74641277    -0.12900
C2654       C  0.67898405  0.92424592  0.73086544    -0.14400
C2655       C  0.88716639  0.58143611  0.82415762    -0.16000
C2656       C  0.90635644  0.58113687  0.83865390    -0.31200
H2657       H  0.87590679  0.56086413  0.81412556     0.13000
H2658       H  0.91679113  0.60092292  0.84940125     0.13600
C2659       C  0.95638416  0.51679989  0.89668338    -0.12900
C2660       C  0.94403884  0.51927878  0.88084454    -0.14400
C2661       C  0.79133087  0.79093576  0.77943329    -0.16000
C2662       C  0.79652108  0.78469775  0.79954036    -0.31200
H2663       H  0.78569211  0.77287665  0.76738461     0.13000
H2664       H  0.80290129  0.80337345  0.81122270     0.13600
C2665       C  0.85383935  0.90136835  0.81143445    -0.13000
C2666       C  0.84357115  0.90695604  0.79169926     0.09200
C2667       C  0.85089524  0.93869007  0.78524557    -0.13000
C2668       C  0.86642747  0.96395649  0.79868003    -0.13000
C2669       C  0.87506555  0.95825045  0.81896138     0.09200
C2670       C  0.86958347  0.92687395  0.82494167    -0.13000
H2671       H  0.84893356  0.87719751  0.81675510     0.13200
H2672       H  0.84382998  0.94402007  0.77006019     0.13200
H2673       H  0.87079220  0.98798972  0.79342737     0.13200
H2674       H  0.87606665  0.92180440  0.84044078     0.13200
C2675       C  0.77367281  0.87045683  0.71206203    -0.12900
C2676       C  0.78649069  0.86736751  0.72727242    -0.14400
C2677       C  0.52855989  0.66784884  0.42809692    -0.16000
C2678       C  0.55102226  0.66466198  0.43685245    -0.31200
H2679       H  0.50942648  0.64646252  0.42272305     0.13000
H2680       H  0.57145024  0.68562853  0.44091898     0.13600
C2681       C  0.52991953  0.89526687  0.52583409    -0.16000
C2682       C  0.50691574  0.89745115  0.51702382    -0.31200
H2683       H  0.54979910  0.91711802  0.52959777     0.13000
H2684       H  0.98324821  0.86727704  0.50842867     0.13600
C2685       C  0.53799821  0.77411983  0.49806654    -0.13000
C2686       C  0.53164648  0.80027342  0.49592621     0.09200
C2687       C  0.52529848  0.80843975  0.47557804    -0.13000
C2688       C  0.52474145  0.79058796  0.45790986    -0.13000
C2689       C  0.53041962  0.76400472  0.46009959     0.09200
C2690       C  0.53741248  0.75619119  0.48033947    -0.13000
H2691       H  0.04279595  0.76223404  0.51114613     0.13200
H2692       H  0.52072134  0.82864588  0.47324492     0.13200
H2693       H  0.51939983  0.79742636  0.44252343     0.13200
H2694       H  0.54167563  0.73575916  0.48261302     0.13200
C2695       C  0.56237927  0.83058851  0.56841220    -0.12900
C2696       C  0.57798167  0.82973023  0.58242647    -0.14400
C2697       C  0.90451085  0.87658295  0.43052035    -0.16000
C2698       C  0.90900794  0.89301981  0.44854289    -0.31200
H2699       H  0.92175182  0.88541856  0.41786977     0.13000
H2700       H  0.89221436  0.88296005  0.46148653     0.13600
C2701       C  0.64940800  0.68156296  0.50504034    -0.16000
C2702       C  0.64514305  0.66388735  0.48764997    -0.31200
H2703       H  0.63263098  0.67255243  0.51801743     0.13000
H2704       H  0.66125009  0.67339614  0.47426223     0.13600
C2705       C  0.75104252  0.75176356  0.46385007    -0.13000
C2706       C  0.74958763  0.76952622  0.48123715     0.09200
C2707       C  0.77441671  0.79968631  0.48438506    -0.13000
C2708       C  0.79998460  0.81146454  0.47071662    -0.13000
C2709       C  0.80150015  0.79343451  0.45348741     0.09200
C2710       C  0.77652273  0.76348823  0.45024022    -0.13000
H2711       H  0.73250132  0.72853800  0.46077390     0.13200
H2712       H  0.77424414  0.81417588  0.49754811     0.13200
H2713       H  0.81864711  0.83461638  0.47376713     0.13200
H2714       H  0.77660785  0.74883446  0.43715520     0.13200
C2715       C  0.69114209  0.78986273  0.56122164    -0.12900
C2716       C  0.69543368  0.77850962  0.54514711    -0.14400
C2717       C  0.67272615  0.54185882  0.45226984    -0.16000
C2718       C  0.65873432  0.55709991  0.44269353    -0.31200
H2719       H  0.66164187  0.52507288  0.46575418     0.13000
H2720       H  0.67021178  0.57500177  0.42984530     0.13600
C2721       C  0.87020474  0.97081130  0.50793502    -0.16000
C2722       C  0.88902690  0.99055721  0.49253198    -0.31200
H2723       H  0.87757098  0.95740566  0.51856737     0.13000
H2724       H  0.88205152  0.00511967  0.48266408     0.13600
C2725       C  0.76255538  0.49907132  0.50124514    -0.13000
C2726       C  0.78590843  0.99419685  0.48992912     0.09200
C2727       C  0.79885797  0.00990907  0.47005708    -0.13000
C2728       C  0.78690824  0.52476644  0.46047899    -0.13000
C2729       C  0.76029292  0.52498531  0.46722346     0.09200
C2730       C  0.74848718  0.51204811  0.48788164    -0.13000
H2731       H  0.75253351  0.48934303  0.51696623     0.13200
H2732       H  0.82025223  0.01236365  0.46467520     0.13200
H2733       H  0.79679273  0.53445811  0.44471946     0.13200
H2734       H  0.72820151  0.51184104  0.49380111     0.13200
C2735       C  0.77027117  0.92269883  0.57274153    -0.12900
C2736       C  0.78444818  0.93630113  0.55657894    -0.14400
C2737       C  0.97977617  0.71429018  0.39146139    -0.12900
C2738       C  0.96177136  0.71144007  0.37839398    -0.14400
C2739       C  0.85661541  0.75827050  0.38008959    -0.12900
C2740       C  0.85525206  0.77554691  0.39364391    -0.14400
C2741       C  0.77052246  0.59446558  0.38358575    -0.12900
C2742       C  0.75703250  0.58055080  0.40002380    -0.14400
C2743       C  0.86757638  0.84305229  0.12107381    -0.16000
C2744       C  0.84941183  0.84920919  0.10857871    -0.31200
H2745       H  0.86085834  0.83468460  0.13763995     0.13000
H2746       H  0.85577968  0.85628592  0.09179673     0.13600
C2747       C  0.94757604  0.87989726  0.06571269    -0.12900
C2748       C  0.95900673  0.89641200  0.04964119    -0.14400
C2749       C  0.57532986  0.79304411  0.18227107    -0.16000
C2750       C  0.59024941  0.80784309  0.16390291    -0.31200
H2751       H  0.58642169  0.78630868  0.19464151     0.13000
H2752       H  0.57868272  0.81333610  0.15124805     0.13600
C2753       C  0.99824617  0.81844965  0.13946640    -0.13000
C2754       C  0.98445622  0.80099396  0.15864509     0.09200
C2755       C  0.95520856  0.79506133  0.16388562    -0.13000
C2756       C  0.94025525  0.80656179  0.15053795    -0.13000
C2757       C  0.95402112  0.82429855  0.13147985     0.09200
C2758       C  0.98313327  0.82990744  0.12597587    -0.13000
H2759       H  0.02069713  0.82332797  0.13490535     0.13200
H2760       H  0.94376622  0.78169090  0.17848366     0.13200
H2761       H  0.91782816  0.80156664  0.15527902     0.13200
H2762       H  0.99437900  0.84344189  0.11137875     0.13200
C2763       C  0.96407471  0.72482785  0.23777334    -0.12900
C2764       C  0.98133481  0.73964548  0.22313839    -0.14400
C2765       C  0.83844729  0.94992442  0.17045926    -0.16000
C2766       C  0.83718340  0.97673849  0.17619997    -0.31200
H2767       H  0.85929559  0.94872261  0.17108900     0.13000
H2768       H  0.81566564  0.97649785  0.17729936     0.13600
C2769       C  0.87486861  0.57559311  0.24087229    -0.12900
C2770       C  0.87840854  0.56031636  0.22686875    -0.14400
C2771       C  0.60251515  0.71906230  0.10989114    -0.16000
C2772       C  0.58718203  0.69344165  0.12338325    -0.31200
H2773       H  0.59446999  0.71970378  0.09395983     0.13000
H2774       H  0.59389961  0.69407608  0.13987390     0.13600
C2775       C  0.96734478  0.56912056  0.13172985    -0.13000
C2776       C  0.98983501  0.59931702  0.13776131     0.09200
C2777       C  0.98722250  0.61009551  0.15808754    -0.13000
C2778       C  0.96259908  0.59156704  0.17180553    -0.13000
C2779       C  0.93982767  0.56162168  0.16566519     0.09200
C2780       C  0.94270713  0.55049077  0.14551341    -0.13000
H2781       H  0.96858760  0.55991593  0.11622646     0.13200
H2782       H  0.00400317  0.63313554  0.16333541     0.13200
H2783       H  0.96128620  0.60104445  0.18719160     0.13200
H2784       H  0.92564112  0.52767799  0.14018194     0.13200
C2785       C  0.54120363  0.61321697  0.06955588    -0.12900
C2786       C  0.54156328  0.60016464  0.05322950    -0.14400
C2787       C  0.75956875  0.73313195  0.17586558    -0.16000
C2788       C  0.74705611  0.70416521  0.16690558    -0.31200
H2789       H  0.77217855  0.73712878  0.19034296     0.13000
H2790       H  0.73581041  0.70179529  0.15187157     0.13600
C2791       C  0.76122447  0.63743484  0.22340784    -0.12900
C2792       C  0.77339376  0.63555166  0.23946558    -0.14400
C2793       C  0.65279702  0.92826406  0.10010125    -0.16000
C2794       C  0.67920042  0.93351429  0.10783228    -0.31200
H2795       H  0.63700964  0.90465404  0.09483522     0.13000
H2796       H  0.69487220  0.95784684  0.11206700     0.13600
C2797       C  0.67061346  0.56576679  0.13038178    -0.13000
C2798       C  0.67172173  0.53660619  0.13329356     0.09200
C2799       C  0.68913036  0.53377396  0.14976964    -0.13000
C2800       C  0.70533194  0.55967302  0.16282100    -0.13000
C2801       C  0.70473061  0.58905440  0.15951536     0.09200
C2802       C  0.68702422  0.59169287  0.14323899    -0.13000
H2803       H  0.65751423  0.56883072  0.11788185     0.13200
H2804       H  0.69043989  0.51158685  0.15250962     0.13200
H2805       H  0.71878417  0.55691010  0.17517309     0.13200
H2806       H  0.68585638  0.61393286  0.14034643     0.13200
C2807       C  0.59927517  0.98406867  0.07038011    -0.12900
C2808       C  0.58787226  0.49018686  0.06103920    -0.14400
loop_ 
_geom_bond_atom_site_label_1 
_geom_bond_atom_site_label_2 
_geom_bond_distance 
_geom_bond_site_symmetry_2 
_ccdc_geom_bond_type 
C1            N2   1.360       .  A
C1          N708   1.359       .  A
C1          C701   1.439       .  S
N2            C3   1.358       .  A
C3            N4   1.359       .  A
C3          C687   1.478       .  S
N4          C707   1.356       .  A
C5            N6   1.362       .  A
C5          N706   1.355   1_545  A
C5          C692   1.489       .  S
N6          C703   1.360   1_545  A
C7            N8   1.366       .  A
C7           N12   1.367       .  A
C7          C685   1.448       .  S
N8            C9   1.363       .  A
C9           N10   1.352       .  A
C9          C695   1.487       .  S
N10          C11   1.350       .  A
C11          N12   1.361       .  A
C11         C682   1.475       .  S
C13          N14   1.360       .  A
C13          N18   1.360       .  A
C13         C666   1.475       .  S
N14        C1419   1.362       .  A
C15          N16   1.358       .  A
C15        N1418   1.362       .  A
C15         C670   1.490       .  S
N16        C1421   1.357       .  A
C17          N18   1.358       .  A
C17        N1420   1.357       .  A
C17         C679   1.436       .  S
C19          N20   1.364       .  A
C19          N24   1.358       .  A
C19        C1362   1.475   1_545  S
N20          C21   1.366       .  A
C21          N22   1.361       .  A
C21         C673   1.490       .  S
N22          C23   1.355       .  A
C23          N24   1.354       .  A
C23         C664   1.440       .  S
C25          N26   1.362       .  A
C25          N30   1.365       .  A
C25         C643   1.483       .  S
N26        C1431   1.358   1_455  A
C27          N28   1.352       .  A
C27        N1430   1.355       .  A
C27         C658   1.433       .  S
N28          C29   1.356       .  A
C29        N1434   1.363       .  A
C29         C648   1.489       .  S
N30        C1433   1.360   1_455  A
C31          N32   1.358       .  A
C31          N36   1.361       .  A
C31         C637   1.486       .  S
N32          C33   1.362       .  A
C33          N34   1.361       .  A
C33         C651   1.489       .  S
N34          C35   1.359       .  A
C35          N36   1.359       .  A
C35         C641   1.441       .  S
Zr37         O38   2.437       .  S
Zr37         O39   2.421       .  S
Zr37         O40   2.447       .  S
Zr37         O43   2.449       .  S
Zr37         O45   2.381       .  S
Zr37         O46   2.383       .  S
Zr37         O47   2.407       .  S
Zr37         O48   2.402       .  S
O38          H94   0.990       .  S
O38         H102   0.990       .  S
O39          C59   1.282       .  A
O40          C61   1.286       .  A
O41         Zr51   2.412       .  S
O41          C60   1.281       .  A
O42         Zr50   2.427       .  S
O42          C61   1.284       .  A
O43          C60   1.288       .  A
O44         Zr52   2.449       .  S
O44          C59   1.287       .  A
O45         Zr50   2.382       .  S
O45         Zr52   2.366       .  S
O46         Zr51   2.385       .  S
O46         Zr52   2.367       .  S
O46          H81   0.966       .  S
O47         Zr50   2.391       .  S
O47         Zr67   2.398       .  S
O47          H84   0.966       .  S
O48         Zr51   2.390       .  S
O48         Zr67   2.401       .  S
Zr49         O74   2.441       .  S
Zr49         O68   2.448       .  S
Zr49         O76   2.468       .  S
Zr49         O64   2.457       .  S
Zr49         O55   2.411       .  S
Zr49         O56   2.419       .  S
Zr49         O57   2.388       .  S
Zr49         O58   2.384       .  S
Zr50         O69   2.434       .  S
Zr50         O62   2.435       .  S
Zr50         O63   2.417       .  S
Zr50         O56   2.396       .  S
Zr50         O57   2.385       .  S
Zr51         O53   2.434       .  S
Zr51         O75   2.437       .  S
Zr51         O77   2.412       .  S
Zr51         O55   2.389       .  S
Zr51         O58   2.384       .  S
Zr52         O78   2.436       .  S
Zr52         O79   2.435       .  S
Zr52         O54   2.437       .  S
Zr52         O55   2.409       .  S
Zr52         O56   2.397       .  S
O53          H90   0.990       .  S
O54          H85   0.990       .  S
O54          H99   0.990       .  S
O56          H82   0.966       .  S
O57         Zr67   2.377       .  S
O58         Zr67   2.373       .  S
O58          H83   0.966       .  S
C59         C644   1.479       .  S
C60         C688   1.472       .  S
C61         C665   1.477       .  S
O62          H98   0.990       .  S
O63          C65   1.284       .  A
O64          C65   1.288       .  A
C65         C681   1.488       .  S
O66         Zr67   2.439       .  S
O66          H95   0.990       .  S
Zr67         O70   2.439       .  S
Zr67         O71   2.440       .  S
Zr67         O72   2.430       .  S
O68          C73   1.288       .  A
O69          H86   0.990       .  S
O69         H101   0.990       .  S
O70          H87   0.990       .  S
O71          H91   0.990       .  S
O71         H100   0.989       .  S
O72          C73   1.283       .  A
C73         C638   1.483       .  S
O74          H93   0.990       .  S
O74          H97   0.990       .  S
O75          H89   0.990       .  S
O75          H96   0.990       .  S
O76          C80   1.290       .  A
O77          C80   1.282       .  A
O78          H88   0.990       .  S
O79          H92   0.990       .  S
C80         C659   1.487       .  S
Zr103       O104   2.439       .  S
Zr103       O105   2.440       .  S
Zr103       O106   2.439       .  S
Zr103       O109   2.424       .  S
Zr103       O111   2.372       .  S
Zr103       O112   2.385       .  S
Zr103       O113   2.404       .  S
Zr103       O114   2.404       .  S
O104        H160   0.990       .  S
O104        H168   0.990       .  S
O105        C125   1.284       .  A
O106        C127   1.283       .  A
O107       Zr117   2.469       .  S
O107        C126   1.291       .  A
O108       Zr116   2.417       .  S
O108        C127   1.279       .  A
O109        C126   1.282       .  A
O110       Zr118   2.438       .  S
O110        C125   1.283       .  A
O111       Zr116   2.391       .  S
O111       Zr118   2.372       .  S
O112       Zr117   2.403       .  S
O112       Zr118   2.377       .  S
O112        H147   0.966       .  S
O113       Zr116   2.399       .  S
O113       Zr133   2.403       .  S
O113        H150   0.966       .  S
O114       Zr117   2.394       .  S
O114       Zr133   2.396       .  S
Zr115       O140   2.448       .  S
Zr115       O134   2.436       .  S
Zr115       O142   2.418       .  S
Zr115       O130   2.433       .  S
Zr115       O121   2.404       .  S
Zr115       O122   2.401       .  S
Zr115       O123   2.371       .  S
Zr115       O124   2.385       .  S
Zr116       O135   2.438       .  S
Zr116       O128   2.436       .  S
Zr116       O129   2.424       .  S
Zr116       O122   2.398       .  S
Zr116       O123   2.386       .  S
Zr117       O119   2.435       .  S
Zr117       O141   2.436       .  S
Zr117       O143   2.468       .  S
Zr117       O121   2.395       .  S
Zr117       O124   2.397       .  S
Zr118       O144   2.438       .  S
Zr118       O145   2.435       .  S
Zr118       O120   2.436       .  S
Zr118       O121   2.397       .  S
Zr118       O122   2.406       .  S
O119        H156   0.990       .  S
O120        H151   0.990       .  S
O120        H165   0.990       .  S
O122        H148   0.966       .  S
O123       Zr133   2.373       .  S
O124       Zr133   2.379       .  S
O124        H149   0.966       .  S
C125        C633   1.446       .  S
C126        C635   1.450       .  S
C127        C632   1.432       .  S
O128        H164   0.990       .  S
O129        C131   1.281       .  A
O130        C131   1.283       .  A
C131        C657   1.433       .  S
O132       Zr133   2.439       .  S
O132        H161   0.990       .  S
Zr133       O136   2.438       .  S
Zr133       O137   2.438       .  S
Zr133       O138   2.433       .  S
O134        C139   1.283       .  A
O135        H152   0.990       .  S
O135        H167   0.990       .  S
O136        H153   0.990       .  S
O137        H157   0.990       .  S
O137        H166   0.990       .  S
O138        C139   1.282       .  A
C139        C663   1.440       .  S
O140        H159   0.990       .  S
O140        H163   0.990       .  S
O141        H155   0.990       .  S
O141        H162   0.990       .  S
O142        C146   1.280       .  A
O143        C146   1.291       .  A
O144        H154   0.990       .  S
O145        H158   0.990       .  S
C146        C686   1.446       .  S
C169        N170   1.371       .  A
C169        N174   1.359       .  A
C169        C615   1.492       .  S
N170        C171   1.369       .  A
C171        N172   1.363       .  A
C171        C620   1.505       .  S
N172        C173   1.358       .  A
C173        N174   1.356       .  A
C173        C630   1.445       .  S
C175        N176   1.363       .  A
C175        N180   1.363       .  A
C175        C611   1.491       .  S
N176        C177   1.364       .  A
C177        N178   1.363       .  A
C177        C623   1.503       .  S
N178        C179   1.363       .  A
C179        N180   1.363       .  A
C179        C636   1.452       .  S
C181        N182   1.356       .  A
C181        N186   1.360       .  A
C181        C595   1.484       .  S
N182        C183   1.361       .  A
C183        N184   1.363       .  A
C183        C600   1.493       .  S
N184        C185   1.363       .  A
C185        N186   1.360       .  A
C185        C610   1.444       .  S
C187        N188   1.368       .  A
C187        N192   1.363       .  A
C187        C591   1.490       .  S
N188        C189   1.366       .  A
C189        N190   1.360       .  A
C189        C603   1.494       .  S
N190        C191   1.353       .  A
C191        N192   1.358       .  A
C191        C634   1.446       .  S
C193        N194   1.352       .  A
C193        N198   1.354       .  A
C193        C589   1.429       .  S
N194        C195   1.357       .  A
C195        N196   1.363       .  A
C195        C580   1.484       .  S
N196        C197   1.362       .  A
C197        N198   1.357       .  A
C197        C575   1.470       .  S
C199        N200   1.353   1_655  A
C199        N204   1.353   1_655  A
C199       C2035   1.433       .  S
N200        C201   1.355       .  A
C201        N202   1.362       .  A
C201        C571   1.472       .  S
N202        C203   1.365       .  A
C203        N204   1.360       .  A
C203        C583   1.484       .  S
Zr205       O206   2.435       .  S
Zr205       O207   2.433       .  S
Zr205       O208   2.477       .  S
Zr205       O211   2.457       .  S
Zr205       O213   2.376       .  S
Zr205      O1618   2.386       .  S
Zr205       O917   2.412       .  S
Zr205      O1620   2.417       .  S
O206        H262   0.990       .  S
O206        H270   0.990       .  S
O207        C227   1.284       .  A
O208        C229   1.294       .  A
O209       Zr219   2.415       .  S
O209        C228   1.284       .  A
O210       Zr218   2.413       .  S
O210        C931   1.280       .  A
O211       C1632   1.289       .  A
O212      Zr1624   2.461       .  S
O212        C227   1.289       .  A
O213       Zr920   2.381       .  S
O213      Zr1624   2.368       .  S
O214       Zr219   2.403       .  S
O214       Zr220   2.363       .  S
O214      Zr1609   2.392   1_455  S
O214        H249   0.966   1_455  S
O215       Zr218   2.394       .  S
O215       Zr907   2.409   1_545  S
O215      Zr1639   2.417       .  S
O215        H252   0.966       .  S
O216       Zr219   2.403       .  S
O216      Zr1609   2.413   1_455  S
O216       Zr937   2.396       .  S
Zr217       O242   2.439       .  S
Zr217       O236   2.447       .  S
Zr217       O244   2.458       .  S
Zr217       O232   2.455       .  S
Zr217       O223   2.414       .  S
Zr217       O224   2.419       .  S
Zr217       O225   2.377       .  S
Zr217       O226   2.384       .  S
Zr218       O237   2.439       .  S
Zr218       O230   2.435       .  S
Zr218      O1635   2.394       .  S
Zr218       O915   2.375       .  S
Zr218      O1628   2.394       .  S
Zr218      O1629   2.380       .  S
Zr219       O221   2.435       .  S
Zr219       O243   2.438       .  S
Zr219       O947   2.462       .  S
Zr219       O925   2.386       .  S
Zr219       O928   2.381       .  S
Zr220       O246   2.436       .  S
Zr220       O247   2.434       .  S
Zr220      O1626   2.437   1_455  S
Zr220      O1616   2.478   1_455  S
Zr220      O1617   2.362   1_455  S
Zr220       O925   2.420       .  S
Zr220       O926   2.414       .  S
O221        H258   0.990       .  S
O222      Zr1624   2.437       .  S
O222        H253   0.990       .  S
O222        H267   0.990       .  S
O223       Zr921   2.385   1_545  S
O223       Zr922   2.417   1_545  S
O224      Zr1622   2.388   1_455  S
O224       Zr922   2.416   1_545  S
O224        H250   0.966       .  S
O225       Zr235   2.371       .  S
O225      Zr1622   2.377   1_455  S
O226       Zr235   2.381       .  S
O226       Zr921   2.385   1_545  S
O226        H251   0.966       .  S
C227        C592   1.491       .  S
C228        C576   1.473       .  S
C228       O1615   1.288   1_455  A
C229        C616   1.490       .  S
C229        O912   1.282       .  A
O230        H266   0.990       .  S
O231      Zr1622   2.403   1_455  S
O231        C233   1.280       .  A
O232        C233   1.287       .  A
C233        C572   1.476       .  S
O234       Zr235   2.440       .  S
O234        H263   0.990       .  S
Zr235       O238   2.438       .  S
Zr235       O239   2.439       .  S
Zr235       O240   2.434       .  S
Zr235      O1619   2.402   1_455  S
Zr235       O918   2.395   1_545  S
O236        C241   1.288       .  A
O237        H254   0.990       .  S
O237        H269   0.990       .  S
O238        H255   0.990       .  S
O239        H259   0.990       .  S
O239        H268   0.990       .  S
O240        C241   1.283       .  A
C241        C596   1.484       .  S
O242        H261   0.990       .  S
O242        H265   0.990       .  S
O243        H257   0.990       .  S
O243        H264   0.990       .  S
O244        C248   1.289       .  A
O245       Zr921   2.441   1_545  S
O245        C248   1.287       .  A
O246        H256   0.990   1_455  S
O247        H962   0.990       .  S
C248        C612   1.494       .  S
H260        O949   0.990       .  S
C271        N272   1.366       .  A
C271        N276   1.366       .  A
C271        C570   1.444       .  S
N272        C273   1.364       .  A
C273        N274   1.351       .  A
C273        C560   1.491       .  S
N274        C275   1.351       .  A
C275        N276   1.360       .  A
C275        C555   1.473       .  S
C277        N282   1.366       .  A
C277        N980   1.368   1_545  A
C277        C554   1.448       .  S
N278        C279   1.366       .  A
N278        C979   1.365       .  A
C279        N982   1.354       .  A
C279        C563   1.490       .  S
N280        C281   1.347       .  A
N280        C981   1.350   1_545  A
C281        N282   1.360       .  A
C281        C550   1.468       .  S
C283        N986   1.359       .  A
C283        N990   1.366       .  A
C283        C533   1.477   1_565  S
N284        C285   1.353       .  A
N284        C985   1.358       .  A
C285        N286   1.351       .  A
C285        C547   1.436       .  S
N286        C287   1.359       .  A
C287        N288   1.365       .  A
C287        C538   1.482       .  S
N288        C985   1.364       .  A
C289        N290   1.355   1_655  A
C289        N294   1.357       .  A
C289       C1931   1.468       .  S
N290        C291   1.360       .  A
C291        N292   1.362       .  A
C291        C541   1.488       .  S
N292        C293   1.361       .  A
C293        N294   1.356   1_455  A
C293        C531   1.438       .  S
C295        N296   1.354       .  A
C295        N300   1.362       .  A
C295        C511   1.472       .  S
N296        C297   1.355       .  A
C297        N298   1.360       .  A
C297        C516   1.480       .  S
N298        C299   1.357       .  A
C299        N300   1.360       .  A
C299        C526   1.441       .  S
C301        N302   1.362       .  A
C301        N306   1.352       .  A
C301       C1910   1.471   1_455  S
N302        C303   1.361       .  A
C303        N304   1.359       .  A
C303        C509   1.439       .  S
N304        C305   1.359       .  A
C305        N306   1.354       .  A
C305        C519   1.480       .  S
Zr307       O308   2.438       .  S
Zr307       O309   2.431       .  S
Zr307       O310   2.470       .  S
Zr307       O313   2.462       .  S
Zr307       O315   2.383       .  S
Zr307       O316   2.393       .  S
Zr307       O317   2.409       .  S
Zr307       O318   2.406       .  S
O308        H364   0.990       .  S
O308        H372   0.990       .  S
O309        C329   1.286       .  A
O310        C331   1.290       .  A
O311       Zr321   2.404       .  S
O311        C330   1.283       .  A
O312       Zr320   2.409       .  S
O312        C331   1.281       .  A
O313        C330   1.289       .  A
O314       Zr322   2.422       .  S
O314        C329   1.280       .  A
O315       Zr320   2.388       .  S
O315       Zr322   2.375       .  S
O316       Zr321   2.388       .  S
O316       Zr322   2.376       .  S
O316        H351   0.966       .  S
O317       Zr320   2.396       .  S
O317       Zr337   2.402       .  S
O317        H354   0.966       .  S
O318       Zr321   2.390       .  S
O318       Zr337   2.389       .  S
Zr319       O344   2.445       .  S
Zr319       O338   2.434       .  S
Zr319       O346   2.433       .  S
Zr319       O334   2.441       .  S
Zr319       O325   2.401       .  S
Zr319       O326   2.402       .  S
Zr319       O327   2.383       .  S
Zr319       O328   2.380       .  S
Zr320       O339   2.436       .  S
Zr320       O332   2.435       .  S
Zr320       O333   2.418       .  S
Zr320       O326   2.388       .  S
Zr320       O327   2.381       .  S
Zr321       O323   2.436       .  S
Zr321       O345   2.437       .  S
Zr321       O347   2.428       .  S
Zr321       O325   2.383       .  S
Zr321       O328   2.372       .  S
Zr322       O348   2.436       .  S
Zr322       O349   2.434       .  S
Zr322       O324   2.435       .  S
Zr322       O325   2.393       .  S
Zr322       O326   2.393       .  S
O323        H360   0.990       .  S
O324        H355   0.990       .  S
O324        H369   0.990       .  S
O326        H352   0.966       .  S
O327       Zr337   2.379       .  S
O328       Zr337   2.373       .  S
O328        H353   0.965       .  S
C329        C512   1.474       .  S
C330        C556   1.486       .  S
C331        C534   1.487       .  S
O332        H368   0.990       .  S
O333        C335   1.284       .  A
O334        C335   1.284       .  A
C335        C549   1.485       .  S
O336       Zr337   2.438       .  S
O336        H365   0.990       .  S
Zr337       O340   2.436       .  S
Zr337       O341   2.441       .  S
Zr337       O342   2.422       .  S
O338        C343   1.287       .  A
O339        H356   0.990       .  S
O339        H371   0.990       .  S
O340        H357   0.990       .  S
O341        H361   0.990       .  S
O341        H370   0.990       .  S
O342        C343   1.281       .  A
C343        C505   1.476       .  S
O344        H363   0.990       .  S
O344        H367   0.990       .  S
O345        H359   0.990       .  S
O345        H366   0.990       .  S
O346        C350   1.283       .  A
O347        C350   1.284       .  A
O348        H358   0.990       .  S
O349        H362   0.990       .  S
C350        C528   1.471       .  S
Zr373       O374   2.443       .  S
Zr373       O375   2.451   1_455  S
Zr373       O379   2.428       .  S
Zr373      O1078   2.430   1_545  S
Zr373       O382   2.381       .  S
Zr373       O384   2.404       .  S
Zr373      O1083   2.383   1_445  S
Zr373      O1085   2.416   1_545  S
O374        H430   0.990       .  S
O374       H1140   0.991       .  S
O375       C1799   1.284       .  A
O376      Zr1075   2.416       .  S
O376        C397   1.279       .  A
O377       Zr387   2.443       .  S
O377        C396   1.285       .  A
O378       Zr386   2.452       .  S
O378        C397   1.287   1_655  A
O379        C396   1.281       .  A
O380       Zr388   2.436       .  S
O380        C395   1.282   1_565  A
O381       Zr386   2.401       .  S
O381      Zr1075   2.381   1_655  S
O381      Zr2494   2.380       .  S
O382       Zr387   2.398       .  S
O382      Zr1792   2.382   1_455  S
O382        H417   0.966       .  S
O383       Zr386   2.403   1_455  S
O383      Zr1075   2.406       .  S
O383      Zr1105   2.395       .  S
O383        H420   0.966       .  S
O384       Zr387   2.391       .  S
O384       Zr403   2.397       .  S
Zr385      O1814   2.444   1_445  S
Zr385       O404   2.442   1_545  S
Zr385       O412   2.422       .  S
Zr385      O2506   2.417   1_445  S
Zr385       O391   2.401   1_554  S
Zr385       O394   2.381       .  S
Zr385      O2498   2.405   1_444  S
Zr385      O1095   2.373   1_545  S
Zr386       O405   2.435   1_655  S
Zr386      O1802   2.435       .  S
Zr386      O1803   2.461   1_556  S
Zr386       O393   2.390   1_656  S
Zr386      O1796   2.396       .  S
Zr387       O389   2.435       .  S
Zr387       O411   2.436       .  S
Zr387       O413   2.441   1_556  S
Zr387       O391   2.393       .  S
Zr387       O394   2.395   1_556  S
Zr388       O414   2.436   1_565  S
Zr388       O415   2.436   1_556  S
Zr388      O1092   2.436       .  S
Zr388      O2487   2.380       .  S
Zr388      O1786   2.382   1_565  S
Zr388      O1795   2.403   1_565  S
Zr388      O1094   2.404       .  S
O389        H426   0.990       .  S
O390      Zr1090   2.436       .  S
O390        H421   0.990       .  S
O390        H435   0.990       .  S
O391      Zr1792   2.400   1_455  S
O392      Zr2491   2.406   1_556  S
O392      Zr1790   2.393       .  S
O392      Zr1090   2.406       .  S
O392        H418   0.966   1_556  S
O393      Zr1087   2.375       .  S
O393      Zr1105   2.376   1_554  S
O394       Zr403   2.375   1_554  S
O394        H419   0.966       .  S
C395        C553   1.448       .  S
C395       O1779   1.284       .  A
C396        C525   1.440       .  S
C397        C532   1.436       .  S
O398      Zr1790   2.435       .  S
O398        H434   0.990       .  S
O399      Zr1790   2.456   1_554  S
O399        C401   1.288       .  A
O400      Zr2491   2.415       .  S
O400        C401   1.280       .  A
C401        C642   1.440       .  S
O402       Zr403   2.439       .  S
O402        H431   0.990       .  S
Zr403       O407   2.438       .  S
Zr403      O1108   2.437   1_545  S
Zr403       O408   2.434   1_546  S
Zr403      O1085   2.390   1_545  S
Zr403      O1095   2.370   1_546  S
O404        C409   1.285       .  A
O405        H422   0.990   1_455  S
O405        H437   0.990       .  S
O406      Zr1105   2.437       .  S
O406        H423   0.990       .  S
O407        H427   0.990   1_556  S
O407        H436   0.990       .  S
O408        C409   1.283       .  A
C409        C702   1.445       .  S
O410      Zr1789   2.443       .  S
O410        H429   0.990   1_565  S
O410       H1135   0.990       .  S
O411        H425   0.990       .  S
O411        H432   0.990       .  S
O412        C416   1.282       .  A
O413        C416   1.285       .  A
O414        H424   0.990       .  S
O415       H1130   0.990   1_565  S
C416        C680   1.435       .  S
H428       O1117   0.990       .  S
H433       O1112   0.990       .  S
H438       O1076   0.990       .  S
Zr439       O440   2.440       .  S
Zr439       O441   2.442       .  S
Zr439       O442   2.418       .  S
Zr439       O445   2.421       .  S
Zr439       O447   2.379       .  S
Zr439       O448   2.378       .  S
Zr439       O449   2.408       .  S
Zr439       O450   2.402       .  S
O440        H496   0.990       .  S
O440        H504   0.990       .  S
O441        C461   1.284       .  A
O442        C463   1.280       .  A
O443       Zr453   2.445       .  S
O443        C462   1.285       .  A
O444       Zr452   2.459       .  S
O444        C463   1.288       .  A
O445        C462   1.281       .  A
O446       Zr454   2.411       .  S
O446        C461   1.277       .  A
O447       Zr452   2.393       .  S
O447       Zr454   2.376       .  S
O448       Zr453   2.389       .  S
O448       Zr454   2.375       .  S
O448        H483   0.966       .  S
O449       Zr452   2.401       .  S
O449       Zr469   2.400       .  S
O449        H486   0.966       .  S
O450       Zr453   2.388       .  S
O450       Zr469   2.403       .  S
Zr451       O476   2.448       .  S
Zr451       O470   2.432       .  S
Zr451       O478   2.427       .  S
Zr451       O466   2.426       .  S
Zr451       O457   2.396       .  S
Zr451       O458   2.403       .  S
Zr451       O459   2.378       .  S
Zr451       O460   2.386       .  S
Zr452       O471   2.435       .  S
Zr452       O464   2.434       .  S
Zr452       O465   2.456       .  S
Zr452       O458   2.401       .  S
Zr452       O459   2.391       .  S
Zr453       O455   2.435       .  S
Zr453       O477   2.438       .  S
Zr453       O479   2.424       .  S
Zr453       O457   2.396       .  S
Zr453       O460   2.397       .  S
Zr454       O480   2.436       .  S
Zr454       O481   2.434       .  S
Zr454       O456   2.437       .  S
Zr454       O457   2.387       .  S
Zr454       O458   2.393       .  S
O455        H492   0.990       .  S
O456        H487   0.990       .  S
O456        H501   0.990       .  S
O458        H484   0.966       .  S
O459       Zr469   2.372       .  S
O460       Zr469   2.379       .  S
O460        H485   0.966       .  S
C461        C548   1.434       .  S
C462        C510   1.438       .  S
C463        C569   1.442       .  S
O464        H500   0.990       .  S
O465        C467   1.288       .  A
O466        C467   1.282       .  A
C467        C629   1.443       .  S
O468       Zr469   2.439       .  S
O468        H497   0.990       .  S
Zr469       O472   2.436       .  S
Zr469       O473   2.440       .  S
Zr469       O474   2.439       .  S
O470        C475   1.283       .  A
O471        H488   0.990       .  S
O471        H503   0.990       .  S
O472        H489   0.990       .  S
O473        H493   0.990       .  S
O473        H502   0.990       .  S
O474        C475   1.284       .  A
C475        C609   1.443       .  S
O476        H495   0.990       .  S
O476        H499   0.990       .  S
O477        H491   0.990       .  S
O477        H498   0.990       .  S
O478        C482   1.282       .  A
O479        C482   1.281       .  A
O480        H490   0.990       .  S
O481        H494   0.990       .  S
C482        C590   1.429       .  S
C505        C506   1.339       .  D
C505        H507   1.087       .  S
C506       C1705   1.471       .  S
C506        H508   1.087       .  S
C509        C510   1.208       .  T
C511        C512   1.340       .  D
C511        H513   1.087       .  S
C512        H514   1.087       .  S
C515        C516   1.409       .  A
C515        C520   1.398       .  A
C515        H521   1.083       .  S
C516        C517   1.402       .  A
C517        C518   1.394       .  A
C517        H522   1.083       .  S
C518        C519   1.407       .  A
C518        H523   1.083       .  S
C519        C520   1.404       .  A
C520        H524   1.083       .  S
C525        C526   1.209       .  T
C527       C1693   1.470       .  S
C527        C528   1.341       .  D
C527        H529   1.087       .  S
C528        H530   1.087       .  S
C531        C532   1.207       .  T
C533        C534   1.349       .  D
C533        H535   1.087       .  S
C534        H536   1.086       .  S
C537        C538   1.405       .  A
C537        C542   1.404       .  A
C537        H543   1.083       .  S
C538        C539   1.404       .  A
C539        C540   1.394       .  A
C539        H544   1.083       .  S
C540        C541   1.406       .  A
C540        H545   1.083       .  S
C541        C542   1.409       .  A
C542        H546   1.083       .  S
C547        C548   1.206       .  T
C549        C550   1.344       .  D
C549        H551   1.086       .  S
C550        H552   1.087       .  S
C553        C554   1.213       .  T
C555        C556   1.347       .  D
C555        H557   1.089       .  S
C556        H558   1.086       .  S
C559        C560   1.412       .  A
C559        C564   1.398       .  A
C559        H565   1.083       .  S
C560        C561   1.403       .  A
C561        C562   1.403       .  A
C561        H566   1.083       .  S
C562        C563   1.413       .  A
C562        H567   1.083       .  S
C563        C564   1.401       .  A
C564        H568   1.083       .  S
C569        C570   1.211       .  T
C571        C572   1.344       .  D
C571        H573   1.088       .  S
C572        H574   1.086       .  S
C575        C576   1.342       .  D
C575        H577   1.087       .  S
C576       H1982   1.086   1_455  S
H578       C1980   1.086       .  S
C579        C580   1.409       .  A
C579        C584   1.398       .  A
C579       H1989   1.083       .  S
C580        C581   1.404       .  A
C581        C582   1.398       .  A
C581        H586   1.083       .  S
C582        C583   1.408       .  A
C582        H587   1.083       .  S
C583        C584   1.404       .  A
C584        H588   1.083       .  S
H585       C1983   1.083       .  S
C589        C590   1.202       .  T
C591        C592   1.348       .  D
C591        H593   1.086       .  S
C592        H594   1.087       .  S
C595        C596   1.345       .  D
C595        H597   1.087       .  S
C596        H598   1.087       .  S
C599        C600   1.405       .  A
C599        C604   1.394       .  A
C599        H605   1.083       .  S
C600        C601   1.410       .  A
C601        C602   1.409       .  A
C601        H606   1.083       .  S
C602        C603   1.409       .  A
C602        H607   1.083       .  S
C603        C604   1.407       .  A
C604        H608   1.083       .  S
C609        C610   1.210       .  T
C611        C612   1.352       .  D
C611        H613   1.087       .  S
C612        H614   1.086       .  S
C615        C616   1.343       .  D
C615        H617   1.087       .  S
C616        H618   1.087       .  S
C619        C624   1.402   1_565  A
C619       C1322   1.411       .  A
C619        H625   1.083       .  S
C620        C621   1.409       .  A
C620       C1321   1.411       .  A
C621       C1324   1.411       .  A
C621        H626   1.083       .  S
C622        C623   1.412       .  A
C622       C1323   1.411       .  A
C622        H627   1.083       .  S
C623        C624   1.407       .  A
C624        H628   1.083   1_545  S
C629        C630   1.211       .  T
C631       C1603   1.432       .  S
C631        C632   1.204       .  T
C633        C634   1.212       .  T
C635        C636   1.215       .  T
C637        C638   1.345       .  D
C637        H639   1.086       .  S
C638        H640   1.087       .  S
C641        C642   1.209       .  T
C643        C644   1.345       .  D
C643        H645   1.087       .  S
C644        H646   1.087       .  S
C647        C648   1.407       .  A
C647        C652   1.405       .  A
C647        H653   1.083       .  S
C648        C649   1.407       .  A
C649        C650   1.395       .  A
C649        H654   1.083       .  S
C650        C651   1.404       .  A
C650        H655   1.083       .  S
C651        C652   1.410       .  A
C652        H656   1.083       .  S
C657        C658   1.204       .  T
C659        C660   1.349       .  D
C659        H661   1.086       .  S
C660        C721   1.478       .  S
C660        H662   1.087       .  S
C663        C664   1.209       .  T
C665        C666   1.345       .  D
C665        H667   1.086       .  S
C666        H668   1.087       .  S
C669        C670   1.410       .  A
C669        C674   1.403       .  A
C669        H675   1.083       .  S
C670        C671   1.405       .  A
C671        C672   1.398       .  A
C671        H676   1.083       .  S
C672        C673   1.408       .  A
C672        H677   1.083       .  S
C673        C674   1.406       .  A
C674        H678   1.083       .  S
C679        C680   1.206       .  T
C681        C682   1.347       .  D
C681        H683   1.086       .  S
C682        H684   1.088       .  S
C685        C686   1.213       .  T
C687        C688   1.342       .  D
C687        H689   1.086       .  S
C688        H690   1.088       .  S
C691        C692   1.402       .  A
C691        C696   1.395       .  A
C691        H697   1.083       .  S
C692        C693   1.412       .  A
C693        C694   1.405       .  A
C693        H698   1.083       .  S
C694        C695   1.404       .  A
C694        H699   1.083       .  S
C695        C696   1.409       .  A
C696        H700   1.083       .  S
C701       C1404   1.208       .  T
C702       C1403   1.212       .  T
C703        N704   1.363       .  A
C703       C1403   1.445       .  S
N704        C705   1.361       .  A
C705        N706   1.359       .  A
C705       C1389   1.483       .  S
C707        N708   1.361       .  A
C707       C1394   1.487       .  S
C709        N710   1.364       .  A
C709        N714   1.366       .  A
C709       C1387   1.443       .  S
N710        C711   1.361       .  A
C711        N712   1.351       .  A
C711       C1397   1.481       .  S
N712        C713   1.351       .  A
C713        N714   1.361       .  A
C713       C1384   1.473       .  S
C715        N716   1.363       .  A
C715        N720   1.358       .  A
C715       C1368   1.476       .  S
N716       C2121   1.365       .  A
C717       N2120   1.364       .  A
C717        N718   1.361       .  A
C717       C1372   1.494       .  S
N718       C2123   1.359       .  A
C719       N2122   1.357       .  A
C719        N720   1.354       .  A
C719       C1381   1.435       .  S
C721        N722   1.365       .  A
C721        N726   1.358       .  A
N722        C723   1.368       .  A
C723        N724   1.361       .  A
C723       C1375   1.493       .  S
N724        C725   1.354       .  A
C725        N726   1.354       .  A
C725       C1366   1.439       .  S
C727        N728   1.362       .  A
C727        N732   1.365       .  A
C727       C1345   1.483       .  S
N728       C2133   1.358   1_455  A
C729       N2132   1.358       .  A
C729        N730   1.352       .  A
C729       C1360   1.434       .  S
N730        C731   1.356       .  A
C731       N2136   1.360       .  A
C731       C1350   1.486       .  S
N732       C2135   1.362       .  A
C733        N734   1.357       .  A
C733        N738   1.359       .  A
C733       C1339   1.484       .  S
N734        C735   1.363       .  A
C735        N736   1.363       .  A
C735       C1353   1.489       .  S
N736        C737   1.360       .  A
C737        N738   1.357       .  A
C737       C1343   1.442       .  S
Zr739       O740   2.437       .  S
Zr739       O741   2.418       .  S
Zr739       O742   2.442       .  S
Zr739       O745   2.449       .  S
Zr739       O747   2.380       .  S
Zr739       O748   2.381       .  S
Zr739       O749   2.407       .  S
Zr739       O750   2.402       .  S
O740        H796   0.990       .  S
O740        H804   0.990       .  S
O741        C761   1.281       .  A
O742        C763   1.286       .  A
O743       Zr753   2.418       .  S
O743        C762   1.282       .  A
O744       Zr752   2.432       .  S
O744        C763   1.285       .  A
O745        C762   1.288       .  A
O746       Zr754   2.455       .  S
O746        C761   1.288       .  A
O747       Zr752   2.378       .  S
O747       Zr754   2.362       .  S
O748       Zr753   2.379       .  S
O748       Zr754   2.365       .  S
O748        H783   0.966       .  S
O749       Zr752   2.392       .  S
O749       Zr769   2.399       .  S
O749        H786   0.966       .  S
O750       Zr753   2.390       .  S
O750       Zr769   2.401       .  S
Zr751       O776   2.441       .  S
Zr751       O770   2.449       .  S
Zr751       O778   2.464       .  S
Zr751       O766   2.455       .  S
Zr751       O757   2.413       .  S
Zr751       O758   2.421       .  S
Zr751       O759   2.387       .  S
Zr751       O760   2.384       .  S
Zr752       O771   2.435       .  S
Zr752       O764   2.435       .  S
Zr752       O765   2.415       .  S
Zr752       O758   2.394       .  S
Zr752       O759   2.386       .  S
Zr753       O755   2.435       .  S
Zr753       O777   2.437       .  S
Zr753       O779   2.413       .  S
Zr753       O757   2.388       .  S
Zr753       O760   2.385       .  S
Zr754       O780   2.435       .  S
Zr754       O781   2.435       .  S
Zr754       O756   2.436       .  S
Zr754       O757   2.411       .  S
Zr754       O758   2.396       .  S
O755        H792   0.990       .  S
O756        H787   0.990       .  S
O756        H801   0.990       .  S
O758        H784   0.966       .  S
O759       Zr769   2.376       .  S
O760       Zr769   2.372       .  S
O760        H785   0.966       .  S
C761       C1346   1.481       .  S
C762       C1390   1.474       .  S
C763       C1367   1.476       .  S
O764        H800   0.990       .  S
O765        C767   1.284       .  A
O766        C767   1.287       .  A
C767       C1383   1.488       .  S
O768       Zr769   2.439       .  S
O768        H797   0.990       .  S
Zr769       O772   2.438       .  S
Zr769       O773   2.440       .  S
Zr769       O774   2.427       .  S
O770        C775   1.288       .  A
O771        H788   0.990       .  S
O771        H803   0.990       .  S
O772        H789   0.990       .  S
O773        H793   0.990       .  S
O773        H802   0.990       .  S
O774        C775   1.282       .  A
C775       C1340   1.480       .  S
O776        H795   0.990       .  S
O776        H799   0.990       .  S
O777        H791   0.990       .  S
O777        H798   0.990       .  S
O778        C782   1.290       .  A
O779        C782   1.283       .  A
O780        H790   0.990       .  S
O781        H794   0.990       .  S
C782       C1361   1.483       .  S
Zr805       O806   2.440       .  S
Zr805       O807   2.436       .  S
Zr805       O808   2.433       .  S
Zr805       O811   2.432       .  S
Zr805       O813   2.376       .  S
Zr805       O814   2.383       .  S
Zr805       O815   2.406       .  S
Zr805       O816   2.403       .  S
O806        H862   0.990       .  S
O806        H870   0.990       .  S
O807        C827   1.283       .  A
O808        C829   1.282       .  A
O809       Zr819   2.472       .  S
O809        C828   1.291       .  A
O810       Zr818   2.400       .  S
O810        C829   1.276       .  A
O811        C828   1.284       .  A
O812       Zr820   2.425       .  S
O812        C827   1.280       .  A
O813       Zr818   2.389       .  S
O813       Zr820   2.372       .  S
O814       Zr819   2.398       .  S
O814       Zr820   2.381       .  S
O814        H849   0.966       .  S
O815       Zr818   2.399       .  S
O815       Zr835   2.404       .  S
O815        H852   0.966       .  S
O816       Zr819   2.392       .  S
O816       Zr835   2.397       .  S
Zr817       O842   2.448       .  S
Zr817       O836   2.427       .  S
Zr817       O844   2.417       .  S
Zr817       O832   2.440       .  S
Zr817       O823   2.402       .  S
Zr817       O824   2.397       .  S
Zr817       O825   2.371       .  S
Zr817       O826   2.389       .  S
Zr818       O837   2.438       .  S
Zr818       O830   2.435       .  S
Zr818       O831   2.418       .  S
Zr818       O824   2.391       .  S
Zr818       O825   2.380       .  S
Zr819       O821   2.435       .  S
Zr819       O843   2.437       .  S
Zr819       O845   2.459       .  S
Zr819       O823   2.398       .  S
Zr819       O826   2.399       .  S
Zr820       O846   2.435       .  S
Zr820       O847   2.435       .  S
Zr820       O822   2.437       .  S
Zr820       O823   2.388       .  S
Zr820       O824   2.402       .  S
O821        H858   0.990       .  S
O822        H853   0.990       .  S
O822        H867   0.990       .  S
O824        H850   0.966       .  S
O825       Zr835   2.372       .  S
O826       Zr835   2.381       .  S
O826        H851   0.966       .  S
C827       C1335   1.437       .  S
C828       C1337   1.456       .  S
C829       C1334   1.421       .  S
O830        H866   0.990       .  S
O831        C833   1.280       .  A
O832        C833   1.284       .  A
C833       C1359   1.434       .  S
O834       Zr835   2.440       .  S
O834        H863   0.990       .  S
Zr835       O838   2.437       .  S
Zr835       O839   2.439       .  S
Zr835       O840   2.435       .  S
O836        C841   1.282       .  A
O837        H854   0.990       .  S
O837        H869   0.990       .  S
O838        H855   0.990       .  S
O839        H859   0.990       .  S
O839        H868   0.990       .  S
O840        C841   1.283       .  A
C841       C1365   1.438       .  S
O842        H861   0.990       .  S
O842        H865   0.990       .  S
O843        H857   0.990       .  S
O843        H864   0.990       .  S
O844        C848   1.281       .  A
O845        C848   1.289       .  A
O846        H856   0.990       .  S
O847        H860   0.990       .  S
C848       C1388   1.441       .  S
C871        N872   1.372       .  A
C871        N876   1.357       .  A
C871       C1317   1.488       .  S
N872        C873   1.370       .  A
C873        N874   1.362       .  A
C873       C1322   1.504       .  S
N874        C875   1.357       .  A
C875        N876   1.353       .  A
C875       C1332   1.440       .  S
C877        N878   1.365       .  A
C877        N882   1.367       .  A
C877       C1313   1.502       .  S
N878        C879   1.366       .  A
C879        N880   1.362       .  A
C879       C1325   1.506       .  S
N880        C881   1.362       .  A
C881        N882   1.367       .  A
C881       C1338   1.457       .  S
C883        N884   1.355       .  A
C883        N888   1.361       .  A
C883       C1297   1.482       .  S
N884        C885   1.360       .  A
C885        N886   1.363       .  A
C885       C1302   1.491       .  S
N886        C887   1.362       .  A
C887        N888   1.360       .  A
C887       C1312   1.445       .  S
C889        N890   1.367       .  A
C889        N894   1.360       .  A
C889       C1293   1.483       .  S
N890        C891   1.365       .  A
C891        N892   1.359       .  A
C891       C1305   1.491       .  S
N892        C893   1.352       .  A
C893        N894   1.355       .  A
C893       C1336   1.438       .  S
C895        N896   1.350       .  A
C895        N900   1.354       .  A
C895       C1291   1.428       .  S
N896        C897   1.355       .  A
C897        N898   1.365       .  A
C897       C1282   1.483       .  S
N898        C899   1.363       .  A
C899        N900   1.357       .  A
C899       C1277   1.471       .  S
C901        N902   1.350   1_655  A
C901        N906   1.348   1_655  A
C901       C2737   1.423       .  S
N902        C903   1.354       .  A
C903        N904   1.365       .  A
C903       C1273   1.469       .  S
N904        C905   1.367       .  A
C905        N906   1.356       .  A
C905       C1285   1.482       .  S
Zr907       O908   2.436       .  S
Zr907       O909   2.423       .  S
Zr907       O910   2.478       .  S
Zr907       O913   2.455       .  S
Zr907       O915   2.371   1_565  S
Zr907      O2320   2.387       .  S
Zr907      O2322   2.417   1_565  S
O908        H964   0.990       .  S
O908        H972   0.990       .  S
O909        C929   1.282       .  A
O910        C931   1.294   1_565  A
O911       Zr921   2.411       .  S
O911        C930   1.283       .  A
O912       Zr920   2.420       .  S
O913       C2334   1.289       .  A
O914      Zr2326   2.455       .  S
O914        C929   1.289       .  A
O915      Zr2326   2.365   1_545  S
O916      Zr2311   2.389   1_455  S
O916       Zr921   2.394       .  S
O916       Zr922   2.362       .  S
O916        H951   0.966       .  S
O917       Zr920   2.394       .  S
O917      Zr2341   2.415       .  S
O917        H954   0.966       .  S
O918      Zr2311   2.411   1_455  S
O918       Zr921   2.399       .  S
Zr919       O944   2.438       .  S
Zr919       O938   2.448       .  S
Zr919       O946   2.461       .  S
Zr919       O934   2.447       .  S
Zr919       O925   2.410       .  S
Zr919       O926   2.422       .  S
Zr919       O927   2.376       .  S
Zr919       O928   2.379       .  S
Zr920       O939   2.441       .  S
Zr920       O932   2.437       .  S
Zr920      O2337   2.408       .  S
Zr920      O2330   2.398       .  S
Zr920      O2331   2.381       .  S
Zr921       O923   2.435       .  S
Zr921       O945   2.438       .  S
Zr922       O948   2.436       .  S
Zr922       O949   2.435   1_565  S
Zr922      O2328   2.435   1_455  S
Zr922      O2318   2.479   1_455  S
Zr922      O2319   2.365   1_455  S
O923        H960   0.990       .  S
O924      Zr2326   2.436       .  S
O924        H955   0.990       .  S
O924        H969   0.990       .  S
O926      Zr2324   2.392   1_455  S
O926        H952   0.966       .  S
O927      Zr2324   2.376   1_455  S
O927       Zr937   2.366       .  S
O928       Zr937   2.385       .  S
O928        H953   0.966       .  S
C929       C1294   1.484       .  S
C930       C1278   1.477       .  S
C930       O2317   1.290   1_455  A
C931       C1318   1.488   1_545  S
O932        H968   0.990       .  S
O933      Zr2324   2.408   1_455  S
O933        C935   1.282       .  A
O934        C935   1.286       .  A
C935       C1274   1.475       .  S
O936       Zr937   2.439       .  S
O936        H965   0.990       .  S
Zr937       O940   2.437       .  S
Zr937       O941   2.438       .  S
Zr937       O942   2.425       .  S
Zr937      O2321   2.395   1_455  S
O938        C943   1.289       .  A
O939        H956   0.990       .  S
O939        H971   0.990       .  S
O940        H957   0.990       .  S
O941        H961   0.990       .  S
O941        H970   0.990       .  S
O942        C943   1.282       .  A
C943       C1298   1.482       .  S
O944        H963   0.990       .  S
O944        H967   0.990       .  S
O945        H959   0.990       .  S
O945        H966   0.990       .  S
O946        C950   1.290       .  A
O947        C950   1.290       .  A
O948        H958   0.990   1_455  S
C950       C1314   1.504       .  S
C973        N974   1.358       .  A
C973        N978   1.357       .  A
C973       C1272   1.436       .  S
N974        C975   1.362       .  A
C975        N976   1.355       .  A
C975       C1262   1.485       .  S
N976        C977   1.360       .  A
C977        N978   1.356       .  A
C977       C1257   1.475       .  S
C979        N984   1.362       .  A
C979       C1256   1.451       .  S
N980        C981   1.364       .  A
C981       C1265   1.485       .  S
N982        C983   1.356       .  A
C983        N984   1.360       .  A
C983       C1252   1.483       .  S
C985       C1235   1.474       .  S
N986        C987   1.354       .  A
C987        N988   1.352       .  A
C987       C1249   1.437       .  S
N988        C989   1.359       .  A
C989        N990   1.367       .  A
C989       C1240   1.490       .  S
C991        N992   1.360       .  A
C991        N996   1.359   1_455  A
C991       C2633   1.481   1_455  S
N992        C993   1.364       .  A
C993        N994   1.361       .  A
C993       C1243   1.489       .  S
N994        C995   1.358       .  A
C995        N996   1.354   1_455  A
C995       C1233   1.436       .  S
C997        N998   1.357       .  A
C997       N1002   1.361       .  A
C997       C1213   1.475       .  S
N998        C999   1.357       .  A
C999       N1000   1.360       .  A
C999       C1218   1.484       .  S
N1000      C1001   1.357       .  A
C1001      N1002   1.359       .  A
C1001      C1228   1.439       .  S
C1003      N1004   1.365       .  A
C1003      N1008   1.353       .  A
C1003      C2612   1.477   1_455  S
N1004      C1005   1.365       .  A
C1005      N1006   1.361       .  A
C1005      C1211   1.446       .  S
N1006      C1007   1.360       .  A
C1007      N1008   1.354       .  A
C1007      C1221   1.485       .  S
Zr1009     O1010   2.438       .  S
Zr1009     O1011   2.422       .  S
Zr1009     O1012   2.462       .  S
Zr1009     O1015   2.445       .  S
Zr1009     O1017   2.375       .  S
Zr1009     O1018   2.387       .  S
Zr1009     O1019   2.408       .  S
Zr1009     O1020   2.403       .  S
O1010      H1066   0.990       .  S
O1010      H1074   0.990       .  S
O1011      C1031   1.284       .  A
O1012      C1033   1.289       .  A
O1013     Zr1023   2.401       .  S
O1013      C1032   1.279       .  A
O1014     Zr1022   2.406       .  S
O1014      C1033   1.282       .  A
O1015      C1032   1.288       .  A
O1016     Zr1024   2.447       .  S
O1016      C1031   1.286       .  A
O1017     Zr1022   2.384       .  S
O1017     Zr1024   2.368       .  S
O1018     Zr1023   2.372       .  S
O1018     Zr1024   2.369       .  S
O1018      H1053   0.965       .  S
O1019     Zr1022   2.391       .  S
O1019     Zr1039   2.404       .  S
O1019      H1056   0.966       .  S
O1020     Zr1023   2.392       .  S
O1020     Zr1039   2.394       .  S
Zr1021     O1046   2.442       .  S
Zr1021     O1040   2.428       .  S
Zr1021     O1048   2.447       .  S
Zr1021     O1036   2.444       .  S
Zr1021     O1027   2.407       .  S
Zr1021     O1028   2.408       .  S
Zr1021     O1029   2.380       .  S
Zr1021     O1030   2.378       .  S
Zr1022     O1041   2.437       .  S
Zr1022     O1034   2.433       .  S
Zr1022     O1035   2.417       .  S
Zr1022     O1028   2.392       .  S
Zr1022     O1029   2.377       .  S
Zr1023     O1025   2.435       .  S
Zr1023     O1047   2.437       .  S
Zr1023     O1049   2.410       .  S
Zr1023     O1027   2.386       .  S
Zr1023     O1030   2.377       .  S
Zr1024     O1050   2.436       .  S
Zr1024     O1051   2.434       .  S
Zr1024     O1026   2.437       .  S
Zr1024     O1027   2.403       .  S
Zr1024     O1028   2.405       .  S
O1025      H1062   0.990       .  S
O1026      H1057   0.990       .  S
O1026      H1071   0.990       .  S
O1028      H1054   0.966       .  S
O1029     Zr1039   2.374       .  S
O1030     Zr1039   2.375       .  S
O1030      H1055   0.966       .  S
C1031      C1214   1.480       .  S
C1032      C1258   1.462       .  S
C1033      C1236   1.485       .  S
O1034      H1070   0.990       .  S
O1035      C1037   1.282       .  A
O1036      C1037   1.286       .  A
C1037      C1251   1.472       .  S
O1038     Zr1039   2.439       .  S
O1038      H1067   0.990       .  S
Zr1039     O1042   2.437       .  S
Zr1039     O1043   2.439       .  S
Zr1039     O1044   2.430       .  S
O1040      C1045   1.286       .  A
O1041      H1058   0.990       .  S
O1041      H1073   0.990       .  S
O1042      H1059   0.990       .  S
O1043      H1063   0.990       .  S
O1043      H1072   0.990       .  S
O1044      C1045   1.282       .  A
C1045      C1207   1.479       .  S
O1046      H1065   0.990       .  S
O1046      H1069   0.990       .  S
O1047      H1061   0.990       .  S
O1047      H1068   0.990       .  S
O1048      C1052   1.286       .  A
O1049      C1052   1.279       .  A
O1050      H1060   0.990       .  S
O1051      H1064   0.990       .  S
C1052      C1230   1.464       .  S
Zr1075     O1076   2.441       .  S
Zr1075     O1077   2.437   1_455  S
Zr1075     O1081   2.414       .  S
Zr1075     O1084   2.380       .  S
Zr1075     O1086   2.397       .  S
O1076      H1132   0.990       .  S
O1077      C2501   1.283       .  A
O1078      C1099   1.280       .  A
O1079     Zr1089   2.452       .  S
O1079      C1098   1.287       .  A
O1080     Zr1088   2.445       .  S
O1080      C1099   1.285   1_655  A
O1081      C1098   1.280       .  A
O1082     Zr1090   2.445       .  S
O1082      C1097   1.284       .  A
O1083     Zr1088   2.407       .  S
O1083     Zr1792   2.383   1_565  S
O1084     Zr1089   2.395       .  S
O1084     Zr2494   2.377   1_455  S
O1084      H1119   0.966       .  S
O1085     Zr1088   2.407   1_455  S
O1085      H1122   0.965       .  S
O1086     Zr1089   2.390       .  S
O1086     Zr1105   2.390       .  S
Zr1087     O2516   2.445   1_455  S
Zr1087     O1106   2.438       .  S
Zr1087     O1114   2.415       .  S
Zr1087     O1804   2.419   1_455  S
Zr1087     O1093   2.401   1_554  S
Zr1087     O1796   2.403   1_454  S
Zr1087     O1096   2.381       .  S
Zr1088     O1107   2.437   1_655  S
Zr1088     O2504   2.436       .  S
Zr1088     O2505   2.458   1_556  S
Zr1088     O2498   2.398       .  S
Zr1088     O1095   2.387   1_656  S
Zr1089     O1091   2.435       .  S
Zr1089     O1113   2.437       .  S
Zr1089     O1115   2.447   1_556  S
Zr1089     O1093   2.394       .  S
Zr1089     O1096   2.393   1_556  S
Zr1090     O1116   2.436       .  S
Zr1090     O1117   2.436   1_556  S
Zr1090     O1785   2.378       .  S
Zr1090     O2488   2.377       .  S
Zr1090     O2497   2.403       .  S
O1091      H1128   0.990       .  S
O1092      H1123   0.990       .  S
O1092      H1137   0.990       .  S
O1093     Zr2494   2.399   1_455  S
O1094     Zr1789   2.407   1_556  S
O1094     Zr2492   2.397       .  S
O1094      H1120   0.966   1_556  S
O1096     Zr1105   2.376   1_554  S
O1096      H1121   0.966       .  S
C1097      C1255   1.451       .  S
C1097      O2481   1.283       .  A
C1098      C1227   1.438       .  S
C1099      C1234   1.435       .  S
O1100     Zr2492   2.435       .  S
O1100      H1136   0.990       .  S
O1101     Zr2492   2.450   1_554  S
O1101      C1103   1.287       .  A
O1102     Zr1789   2.426       .  S
O1102      C1103   1.282       .  A
C1103      C1344   1.441       .  S
O1104     Zr1105   2.439       .  S
O1104      H1133   0.990       .  S
Zr1105     O1109   2.439       .  S
Zr1105     O1110   2.425   1_556  S
O1106      C1111   1.284       .  A
O1107      H1124   0.990   1_455  S
O1107      H1139   0.990       .  S
O1108      H1125   0.990       .  S
O1109      H1129   0.990   1_556  S
O1109      H1138   0.990       .  S
O1110      C1111   1.281       .  A
C1111      C1404   1.438       .  S
O1112     Zr2491   2.444       .  S
O1112      H1131   0.990       .  S
O1113      H1127   0.990       .  S
O1113      H1134   0.990       .  S
O1114      C1118   1.280       .  A
O1115      C1118   1.286       .  A
O1116      H1126   0.990       .  S
C1118      C1382   1.434       .  S
Zr1141     O1142   2.439       .  S
Zr1141     O1143   2.440       .  S
Zr1141     O1144   2.409       .  S
Zr1141     O1147   2.426       .  S
Zr1141     O1149   2.381       .  S
Zr1141     O1150   2.373       .  S
Zr1141     O1151   2.411       .  S
Zr1141     O1152   2.400       .  S
O1142      H1198   0.990       .  S
O1142      H1206   0.990       .  S
O1143      C1163   1.284       .  A
O1144      C1165   1.279       .  A
O1145     Zr1155   2.454       .  S
O1145      C1164   1.287       .  A
O1146     Zr1154   2.453       .  S
O1146      C1165   1.287       .  A
O1147      C1164   1.282       .  A
O1148     Zr1156   2.418       .  S
O1148      C1163   1.279       .  A
O1149     Zr1154   2.392       .  S
O1149     Zr1156   2.375       .  S
O1150     Zr1155   2.386       .  S
O1150     Zr1156   2.378       .  S
O1150      H1185   0.966       .  S
O1151     Zr1154   2.401       .  S
O1151     Zr1171   2.401       .  S
O1151      H1188   0.966       .  S
O1152     Zr1155   2.384       .  S
O1152     Zr1171   2.404       .  S
Zr1153     O1178   2.446       .  S
Zr1153     O1172   2.434       .  S
Zr1153     O1180   2.425       .  S
Zr1153     O1168   2.420       .  S
Zr1153     O1159   2.398       .  S
Zr1153     O1160   2.403       .  S
Zr1153     O1161   2.377       .  S
Zr1153     O1162   2.384       .  S
Zr1154     O1173   2.436       .  S
Zr1154     O1166   2.434       .  S
Zr1154     O1167   2.455       .  S
Zr1154     O1160   2.397       .  S
Zr1154     O1161   2.390       .  S
Zr1155     O1157   2.434       .  S
Zr1155     O1179   2.437       .  S
Zr1155     O1181   2.424       .  S
Zr1155     O1159   2.397       .  S
Zr1155     O1162   2.399       .  S
Zr1156     O1182   2.435       .  S
Zr1156     O1183   2.437       .  S
Zr1156     O1158   2.437       .  S
Zr1156     O1159   2.391       .  S
Zr1156     O1160   2.393       .  S
O1157      H1194   0.990       .  S
O1158      H1189   0.990       .  S
O1158      H1203   0.990       .  S
O1160      H1186   0.966       .  S
O1161     Zr1171   2.371       .  S
O1162     Zr1171   2.379       .  S
O1162      H1187   0.966       .  S
C1163      C1250   1.436       .  S
C1164      C1212   1.446       .  S
C1165      C1271   1.434       .  S
O1166      H1202   0.990       .  S
O1167      C1169   1.288       .  A
O1168      C1169   1.281       .  A
C1169      C1331   1.439       .  S
O1170     Zr1171   2.440       .  S
O1170      H1199   0.990       .  S
Zr1171     O1174   2.436       .  S
Zr1171     O1175   2.440       .  S
Zr1171     O1176   2.441       .  S
O1172      C1177   1.283       .  A
O1173      H1190   0.990       .  S
O1173      H1205   0.990       .  S
O1174      H1191   0.990       .  S
O1175      H1195   0.990       .  S
O1175      H1204   0.989       .  S
O1176      C1177   1.284       .  A
C1177      C1311   1.444       .  S
O1178      H1197   0.990       .  S
O1178      H1201   0.990       .  S
O1179      H1193   0.990       .  S
O1179      H1200   0.990       .  S
O1180      C1184   1.282       .  A
O1181      C1184   1.282       .  A
O1182      H1192   0.990       .  S
O1183      H1196   0.990       .  S
C1184      C1292   1.428       .  S
C1207      C1208   1.342       .  D
C1207      H1209   1.086       .  S
C1208      C2407   1.473       .  S
C1208      H1210   1.087       .  S
C1211      C1212   1.212       .  T
C1213      C1214   1.346       .  D
C1213      H1215   1.087       .  S
C1214      H1216   1.086       .  S
C1217      C1218   1.408       .  A
C1217      C1222   1.401       .  A
C1217      H1223   1.083       .  S
C1218      C1219   1.404       .  A
C1219      C1220   1.395       .  A
C1219      H1224   1.083       .  S
C1220      C1221   1.408       .  A
C1220      H1225   1.083       .  S
C1221      C1222   1.405       .  A
C1222      H1226   1.083       .  S
C1227      C1228   1.208       .  T
C1229      C2395   1.479       .  S
C1229      C1230   1.343       .  D
C1229      H1231   1.087       .  S
C1230      H1232   1.086       .  S
C1233      C1234   1.206       .  T
C1235      C1236   1.348       .  D
C1235      H1237   1.087       .  S
C1236      H1238   1.086       .  S
C1239      C1240   1.406       .  A
C1239      C1244   1.404       .  A
C1239      H1245   1.083       .  S
C1240      C1241   1.409       .  A
C1241      C1242   1.396       .  A
C1241      H1246   1.083       .  S
C1242      C1243   1.404       .  A
C1242      H1247   1.083       .  S
C1243      C1244   1.410       .  A
C1244      H1248   1.083       .  S
C1249      C1250   1.206       .  T
C1251      C1252   1.346       .  D
C1251      H1253   1.087       .  S
C1252      H1254   1.086       .  S
C1255      C1256   1.215       .  T
C1257      C1258   1.339       .  D
C1257      H1259   1.087       .  S
C1258      H1260   1.087       .  S
C1261      C1262   1.412       .  A
C1261      C1266   1.406       .  A
C1261      H1267   1.083       .  S
C1262      C1263   1.400       .  A
C1263      C1264   1.392       .  A
C1263      H1268   1.083       .  S
C1264      C1265   1.409       .  A
C1264      H1269   1.083       .  S
C1265      C1266   1.404       .  A
C1266      H1270   1.083       .  S
C1271      C1272   1.206       .  T
C1273      C1274   1.341       .  D
C1273      H1275   1.088       .  S
C1274      H1276   1.086       .  S
C1277      C1278   1.344       .  D
C1277      H1279   1.087       .  S
C1278      H2684   1.086   1_455  S
H1280      C2682   1.086       .  S
C1281      C1282   1.411       .  A
C1281      C1286   1.399       .  A
C1281      H2691   1.083       .  S
C1282      C1283   1.402       .  A
C1283      C1284   1.395       .  A
C1283      H1288   1.083       .  S
C1284      C1285   1.410       .  A
C1284      H1289   1.083       .  S
C1285      C1286   1.402       .  A
C1286      H1290   1.083       .  S
H1287      C2685   1.083       .  S
C1291      C1292   1.201       .  T
C1293      C1294   1.344       .  D
C1293      H1295   1.087       .  S
C1294      H1296   1.087       .  S
C1297      C1298   1.344       .  D
C1297      H1299   1.087       .  S
C1298      H1300   1.087       .  S
C1301      C1302   1.405       .  A
C1301      C1306   1.393       .  A
C1301      H1307   1.083       .  S
C1302      C1303   1.409       .  A
C1303      C1304   1.407       .  A
C1303      H1308   1.083       .  S
C1304      C1305   1.408       .  A
C1304      H1309   1.083       .  S
C1305      C1306   1.407       .  A
C1306      H1310   1.083       .  S
C1311      C1312   1.211       .  T
C1313      C1314   1.355       .  D
C1313      H1315   1.086       .  S
C1314      H1316   1.086       .  S
C1317      C1318   1.341       .  D
C1317      H1319   1.087       .  S
C1318      H1320   1.087   1_565  S
C1321      C1326   1.404       .  A
C1321      H1327   1.083       .  S
C1322      C1323   1.409   1_565  A
C1323      H1328   1.083       .  S
C1324      C1325   1.413       .  A
C1324      H1329   1.083       .  S
C1325      C1326   1.407       .  A
C1326      H1330   1.083       .  S
C1331      C1332   1.209       .  T
C1333      C2305   1.421       .  S
C1333      C1334   1.197       .  T
C1335      C1336   1.207       .  T
C1337      C1338   1.218       .  T
C1339      C1340   1.345       .  D
C1339      H1341   1.086       .  S
C1340      H1342   1.087       .  S
C1343      C1344   1.210       .  T
C1345      C1346   1.345       .  D
C1345      H1347   1.086       .  S
C1346      H1348   1.087       .  S
C1349      C1350   1.406       .  A
C1349      C1354   1.404       .  A
C1349      H1355   1.083       .  S
C1350      C1351   1.406       .  A
C1351      C1352   1.395       .  A
C1351      H1356   1.083       .  S
C1352      C1353   1.406       .  A
C1352      H1357   1.083       .  S
C1353      C1354   1.409       .  A
C1354      H1358   1.083       .  S
C1359      C1360   1.205       .  T
C1361      C1362   1.347       .  D
C1361      H1363   1.086       .  S
C1362      H1364   1.087       .  S
C1365      C1366   1.208       .  T
C1367      C1368   1.346       .  D
C1367      H1369   1.087       .  S
C1368      H1370   1.087       .  S
C1371      C1372   1.410       .  A
C1371      C1376   1.405       .  A
C1371      H1377   1.083       .  S
C1372      C1373   1.405       .  A
C1373      C1374   1.400       .  A
C1373      H1378   1.083       .  S
C1374      C1375   1.409       .  A
C1374      H1379   1.083       .  S
C1375      C1376   1.406       .  A
C1376      H1380   1.083       .  S
C1381      C1382   1.206       .  T
C1383      C1384   1.347       .  D
C1383      H1385   1.086       .  S
C1384      H1386   1.088       .  S
C1387      C1388   1.210       .  T
C1389      C1390   1.345       .  D
C1389      H1391   1.086       .  S
C1390      H1392   1.088       .  S
C1393      C1394   1.403       .  A
C1393      C1398   1.395       .  A
C1393      H1399   1.083       .  S
C1394      C1395   1.411       .  A
C1395      C1396   1.403       .  A
C1395      H1400   1.083       .  S
C1396      C1397   1.402       .  A
C1396      H1401   1.083       .  S
C1397      C1398   1.407       .  A
C1398      H1402   1.083       .  S
C1405      N1406   1.361       .  A
C1405      N2112   1.360       .  A
C1405      C2105   1.441       .  S
N1406      C1407   1.359       .  A
C1407      N1408   1.357       .  A
C1407      C2091   1.479       .  S
N1408      C2111   1.354       .  A
C1409      N2110   1.354   1_545  A
C1409      N1410   1.361       .  A
C1409      C2096   1.487       .  S
N1410      C2107   1.359   1_545  A
C1411      N1412   1.366       .  A
C1411      N1416   1.364       .  A
C1411      C2089   1.444       .  S
N1412      C1413   1.363       .  A
C1413      N1414   1.352       .  A
C1413      C2099   1.486       .  S
N1414      C1415   1.351       .  A
C1415      N1416   1.359       .  A
C1415      C2086   1.472       .  S
C1417      N1418   1.360       .  A
C1417      N1422   1.360       .  A
C1417      C2070   1.476       .  S
C1419      N1420   1.359       .  A
C1419      C2074   1.489   1_455  S
C1421      N1422   1.358       .  A
C1421      C2083   1.437       .  S
C1423      N1424   1.364       .  A
C1423      N1428   1.357       .  A
C1423      C2766   1.474   1_545  S
N1424      C1425   1.367       .  A
C1425      N1426   1.361       .  A
C1425      C2077   1.490       .  S
N1426      C1427   1.354       .  A
C1427      N1428   1.353       .  A
C1427      C2068   1.436       .  S
C1429      N1430   1.359       .  A
C1429      N1434   1.367       .  A
C1429      C2047   1.481       .  S
C1431      N1432   1.352       .  A
C1431      C2062   1.436       .  S
N1432      C1433   1.356       .  A
C1433      C2052   1.487       .  S
C1435      N1436   1.356       .  A
C1435      N1440   1.362       .  A
C1435      C2041   1.483       .  S
N1436      C1437   1.360       .  A
C1437      N1438   1.362       .  A
C1437      C2055   1.487       .  S
N1438      C1439   1.360       .  A
C1439      N1440   1.361       .  A
C1439      C2045   1.444       .  S
Zr1441     O1442   2.436       .  S
Zr1441     O1443   2.408       .  S
Zr1441     O1444   2.450       .  S
Zr1441     O1447   2.444       .  S
Zr1441     O1449   2.380       .  S
Zr1441     O1450   2.384       .  S
Zr1441     O1451   2.402       .  S
Zr1441     O1452   2.397       .  S
O1442      H1498   0.990       .  S
O1442      H1506   0.990       .  S
O1443      C1463   1.279       .  A
O1444      C1465   1.287       .  A
O1445     Zr1455   2.411       .  S
O1445      C1464   1.281       .  A
O1446     Zr1454   2.423       .  S
O1446      C1465   1.283       .  A
O1447      C1464   1.287       .  A
O1448     Zr1456   2.457       .  S
O1448      C1463   1.289       .  A
O1449     Zr1454   2.380       .  S
O1449     Zr1456   2.367       .  S
O1450     Zr1455   2.382       .  S
O1450     Zr1456   2.364       .  S
O1450      H1485   0.966       .  S
O1451     Zr1454   2.392       .  S
O1451     Zr1471   2.397       .  S
O1451      H1488   0.966       .  S
O1452     Zr1455   2.392       .  S
O1452     Zr1471   2.396       .  S
Zr1453     O1478   2.441       .  S
Zr1453     O1472   2.450       .  S
Zr1453     O1480   2.469       .  S
Zr1453     O1468   2.456       .  S
Zr1453     O1459   2.415       .  S
Zr1453     O1460   2.421       .  S
Zr1453     O1461   2.386       .  S
Zr1453     O1462   2.381       .  S
Zr1454     O1473   2.436       .  S
Zr1454     O1466   2.435       .  S
Zr1454     O1467   2.409       .  S
Zr1454     O1460   2.394       .  S
Zr1454     O1461   2.386       .  S
Zr1455     O1457   2.434       .  S
Zr1455     O1479   2.439       .  S
Zr1455     O1481   2.413       .  S
Zr1455     O1459   2.389       .  S
Zr1455     O1462   2.383       .  S
Zr1456     O1482   2.435       .  S
Zr1456     O1483   2.436       .  S
Zr1456     O1458   2.437       .  S
Zr1456     O1459   2.413       .  S
Zr1456     O1460   2.400       .  S
O1457      H1494   0.990       .  S
O1458      H1489   0.990       .  S
O1458      H1503   0.990       .  S
O1460      H1486   0.966       .  S
O1461     Zr1471   2.378       .  S
O1462     Zr1471   2.372       .  S
O1462      H1487   0.966       .  S
C1463      C2048   1.478       .  S
C1464      C2092   1.470       .  S
C1465      C2069   1.477       .  S
O1466      H1502   0.990       .  S
O1467      C1469   1.282       .  A
O1468      C1469   1.287       .  A
C1469      C2085   1.486       .  S
O1470     Zr1471   2.439       .  S
O1470      H1499   0.990       .  S
Zr1471     O1474   2.437       .  S
Zr1471     O1475   2.439       .  S
Zr1471     O1476   2.426       .  S
O1472      C1477   1.289       .  A
O1473      H1490   0.990       .  S
O1473      H1505   0.990       .  S
O1474      H1491   0.990       .  S
O1475      H1495   0.990       .  S
O1475      H1504   0.990       .  S
O1476      C1477   1.282       .  A
C1477      C2042   1.483       .  S
O1478      H1497   0.990       .  S
O1478      H1501   0.990       .  S
O1479      H1493   0.990       .  S
O1479      H1500   0.990       .  S
O1480      C1484   1.291       .  A
O1481      C1484   1.283       .  A
O1482      H1492   0.990       .  S
O1483      H1496   0.990       .  S
C1484      C2063   1.488       .  S
Zr1507     O1508   2.441       .  S
Zr1507     O1509   2.443       .  S
Zr1507     O1510   2.435       .  S
Zr1507     O1513   2.414       .  S
Zr1507     O1515   2.374       .  S
Zr1507     O1516   2.383       .  S
Zr1507     O1517   2.405       .  S
Zr1507     O1518   2.404       .  S
O1508      H1564   0.990       .  S
O1508      H1572   0.990       .  S
O1509      C1529   1.284       .  A
O1510      C1531   1.282       .  A
O1511     Zr1521   2.462       .  S
O1511      C1530   1.290       .  A
O1512     Zr1520   2.422       .  S
O1512      C1531   1.280       .  A
O1513      C1530   1.280       .  A
O1514     Zr1522   2.427       .  S
O1514      C1529   1.281       .  A
O1515     Zr1520   2.394       .  S
O1515     Zr1522   2.378       .  S
O1516     Zr1521   2.400       .  S
O1516     Zr1522   2.377       .  S
O1516      H1551   0.966       .  S
O1517     Zr1520   2.398       .  S
O1517     Zr1537   2.403       .  S
O1517      H1554   0.966       .  S
O1518     Zr1521   2.392       .  S
O1518     Zr1537   2.392       .  S
Zr1519     O1544   2.446       .  S
Zr1519     O1538   2.428       .  S
Zr1519     O1546   2.422       .  S
Zr1519     O1534   2.438       .  S
Zr1519     O1525   2.401       .  S
Zr1519     O1526   2.399       .  S
Zr1519     O1527   2.375       .  S
Zr1519     O1528   2.386       .  S
Zr1520     O1539   2.437       .  S
Zr1520     O1532   2.435       .  S
Zr1520     O1533   2.427       .  S
Zr1520     O1526   2.396       .  S
Zr1520     O1527   2.386       .  S
Zr1521     O1523   2.435       .  S
Zr1521     O1545   2.437       .  S
Zr1521     O1547   2.460       .  S
Zr1521     O1525   2.395       .  S
Zr1521     O1528   2.395       .  S
Zr1522     O1548   2.435       .  S
Zr1522     O1549   2.435       .  S
Zr1522     O1524   2.436       .  S
Zr1522     O1525   2.392       .  S
Zr1522     O1526   2.401       .  S
O1523      H1560   0.990       .  S
O1524      H1555   0.990       .  S
O1524      H1569   0.990       .  S
O1526      H1552   0.966       .  S
O1527     Zr1537   2.374       .  S
O1528     Zr1537   2.378       .  S
O1528      H1553   0.966       .  S
C1529      C2037   1.443       .  S
C1530      C2039   1.442       .  S
C1531      C2036   1.432       .  S
O1532      H1568   0.990       .  S
O1533      C1535   1.282       .  A
O1534      C1535   1.284       .  A
C1535      C2061   1.436       .  S
O1536     Zr1537   2.439       .  S
O1536      H1565   0.990       .  S
Zr1537     O1540   2.437       .  S
Zr1537     O1541   2.439       .  S
Zr1537     O1542   2.432       .  S
O1538      C1543   1.282       .  A
O1539      H1556   0.990       .  S
O1539      H1571   0.990       .  S
O1540      H1557   0.990       .  S
O1541      H1561   0.990       .  S
O1541      H1570   0.990       .  S
O1542      C1543   1.282       .  A
C1543      C2067   1.436       .  S
O1544      H1563   0.990       .  S
O1544      H1567   0.990       .  S
O1545      H1559   0.990       .  S
O1545      H1566   0.990       .  S
O1546      C1550   1.281       .  A
O1547      C1550   1.289       .  A
O1548      H1558   0.990       .  S
O1549      H1562   0.990       .  S
C1550      C2090   1.443       .  S
C1573      N1574   1.369       .  A
C1573      N1578   1.357       .  A
C1573      C2019   1.487       .  S
N1574      C1575   1.368       .  A
C1575      N1576   1.364       .  A
C1575      C2024   1.505       .  S
N1576      C1577   1.360       .  A
C1577      N1578   1.354       .  A
C1577      C2034   1.443       .  S
C1579      N1580   1.362       .  A
C1579      N1584   1.359       .  A
C1579      C2015   1.485       .  S
N1580      C1581   1.365       .  A
C1581      N1582   1.364       .  A
C1581      C2027   1.502       .  S
N1582      C1583   1.363       .  A
C1583      N1584   1.358       .  A
C1583      C2040   1.444       .  S
C1585      N1586   1.365       .  A
C1585      N1590   1.355       .  A
C1585      C1999   1.486       .  S
N1586      C1587   1.368       .  A
C1587      N1588   1.366       .  A
C1587      C2004   1.500       .  S
N1588      C1589   1.361       .  A
C1589      N1590   1.354       .  A
C1589      C2014   1.443       .  S
C1591      N1592   1.368       .  A
C1591      N1596   1.359       .  A
C1591      C1995   1.491       .  S
N1592      C1593   1.367       .  A
C1593      N1594   1.362       .  A
C1593      C2007   1.499       .  S
N1594      C1595   1.357       .  A
C1595      N1596   1.358       .  A
C1595      C2038   1.443       .  S
C1597      N1598   1.355       .  A
C1597      N1602   1.356       .  A
C1597      C1993   1.433       .  S
N1598      C1599   1.359       .  A
C1599      N1600   1.363       .  A
C1599      C1984   1.487       .  S
N1600      C1601   1.361       .  A
C1601      N1602   1.357       .  A
C1601      C1979   1.471       .  S
C1603      N1604   1.351       .  A
C1603      N1608   1.353       .  A
N1604      C1605   1.354       .  A
C1605      N1606   1.363       .  A
C1605      C1975   1.470       .  S
N1606      C1607   1.367       .  A
C1607      N1608   1.361       .  A
C1607      C1987   1.487       .  S
Zr1609     O1610   2.436       .  S
Zr1609     O1611   2.410       .  S
Zr1609     O1612   2.478       .  S
Zr1609     O1615   2.451       .  S
Zr1609     O1617   2.375       .  S
Zr1609     O2321   2.401       .  S
O1610      H1666   0.990       .  S
O1610      H1674   0.990       .  S
O1611      C1631   1.279       .  A
O1612      C1633   1.294       .  A
O1613     Zr1623   2.410       .  S
O1613      C1632   1.282       .  A
O1614     Zr1622   2.402       .  S
O1614      C2335   1.278   1_545  A
O1616      C1631   1.292       .  A
O1617     Zr2324   2.381       .  S
O1618     Zr1623   2.390       .  S
O1618     Zr1624   2.367       .  S
O1618      H1653   0.966       .  S
O1619     Zr2311   2.403   1_545  S
O1619     Zr1622   2.393       .  S
O1619      H1656   0.966       .  S
O1620     Zr1623   2.398       .  S
O1620     Zr2341   2.410       .  S
Zr1621     O1646   2.437       .  S
Zr1621     O1640   2.422       .  S
Zr1621     O1648   2.456       .  S
Zr1621     O1636   2.466       .  S
Zr1621     O1627   2.410       .  S
Zr1621     O1628   2.414       .  S
Zr1621     O1629   2.374       .  S
Zr1621     O1630   2.382       .  S
Zr1622     O1641   2.435       .  S
Zr1622     O1634   2.434       .  S
Zr1622     O2319   2.380   1_545  S
Zr1623     O1625   2.435       .  S
Zr1623     O1647   2.436       .  S
Zr1623     O2351   2.432       .  S
Zr1623     O2329   2.391       .  S
Zr1623     O2332   2.377       .  S
Zr1624     O1650   2.435       .  S
Zr1624     O1651   2.434       .  S
Zr1624     O2329   2.413       .  S
Zr1624     O2330   2.408       .  S
O1625      H1662   0.990       .  S
O1626      H1657   0.990       .  S
O1626      H1671   0.990       .  S
O1627     Zr2325   2.390   1_545  S
O1627     Zr2326   2.408   1_545  S
O1628     Zr2326   2.411   1_545  S
O1628      H1654   0.966       .  S
O1629     Zr1639   2.362       .  S
O1630     Zr2325   2.379   1_545  S
O1630     Zr1639   2.371       .  S
O1630      H1655   0.966       .  S
C1631      C1996   1.489       .  S
C1632      C1980   1.477       .  S
C1633      C2020   1.485       .  S
C1633      O2316   1.280       .  A
O1634      H1670   0.990       .  S
O1635      C1637   1.280       .  A
O1636      C1637   1.290       .  A
C1637      C1976   1.479       .  S
O1638     Zr1639   2.439       .  S
O1638      H1667   0.991       .  S
Zr1639     O1642   2.437       .  S
Zr1639     O1643   2.439       .  S
Zr1639     O1644   2.465       .  S
Zr1639     O2322   2.407       .  S
O1640      C1645   1.282       .  A
O1641      H1658   0.990       .  S
O1641      H1673   0.990       .  S
O1642      H1659   0.990       .  S
O1643      H1663   0.990       .  S
O1643      H1672   0.990       .  S
O1644      C1645   1.291       .  A
C1645      C2000   1.487       .  S
O1646      H1665   0.990       .  S
O1646      H1669   0.990       .  S
O1647      H1661   0.990       .  S
O1647      H1668   0.990       .  S
O1648      C1652   1.289       .  A
O1649     Zr2325   2.430   1_545  S
O1649      C1652   1.285       .  A
O1650      H1660   0.990       .  S
O1651      H2366   0.990       .  S
C1652      C2016   1.488       .  S
H1664      O2353   0.990       .  S
C1675      N1676   1.362       .  A
C1675      N1680   1.367       .  A
C1675      C1974   1.441       .  S
N1676      C1677   1.360       .  A
C1677      N1678   1.352       .  A
C1677      C1964   1.486       .  S
N1678      C1679   1.353       .  A
C1679      N1680   1.362       .  A
C1679      C1959   1.475       .  S
C1681      N2384   1.364   1_545  A
C1681      N1686   1.367       .  A
C1681      C1958   1.446       .  S
N1682      C2383   1.361       .  A
N1682      C1683   1.362       .  A
C1683      N2386   1.355       .  A
C1683      C1967   1.486       .  S
N1684      C2385   1.352   1_545  A
N1684      C1685   1.349       .  A
C1685      N1686   1.362       .  A
C1685      C1954   1.474       .  S
C1687      N2390   1.358       .  A
C1687      N2394   1.366       .  A
C1687      C1937   1.473   1_565  S
N1688      C2389   1.358       .  A
N1688      C1689   1.351       .  A
C1689      N1690   1.350       .  A
C1689      C1951   1.435       .  S
N1690      C1691   1.360       .  A
C1691      N1692   1.367       .  A
C1691      C1942   1.484       .  S
N1692      C2389   1.366       .  A
C1693      N1694   1.357       .  A
C1693      N1698   1.358       .  A
N1694      C1695   1.361       .  A
C1695      N1696   1.360       .  A
C1695      C1945   1.488       .  S
N1696      C1697   1.359       .  A
C1697      N1698   1.356       .  A
C1697      C1935   1.434       .  S
C1699      N1700   1.357       .  A
C1699      N1704   1.363       .  A
C1699      C1915   1.476       .  S
N1700      C1701   1.356       .  A
C1701      N1702   1.358       .  A
C1701      C1920   1.482       .  S
N1702      C1703   1.356       .  A
C1703      N1704   1.362       .  A
C1703      C1930   1.439       .  S
C1705      N1706   1.362       .  A
C1705      N1710   1.352       .  A
N1706      C1707   1.361       .  A
C1707      N1708   1.360       .  A
C1707      C1913   1.441       .  S
N1708      C1709   1.360       .  A
C1709      N1710   1.354       .  A
C1709      C1923   1.481       .  S
Zr1711     O1712   2.438       .  S
Zr1711     O1713   2.431       .  S
Zr1711     O1714   2.455       .  S
Zr1711     O1717   2.466       .  S
Zr1711     O1719   2.385       .  S
Zr1711     O1720   2.384       .  S
Zr1711     O1721   2.412       .  S
Zr1711     O1722   2.402       .  S
O1712      H1768   0.990       .  S
O1712      H1776   0.990       .  S
O1713      C1733   1.285       .  A
O1714      C1735   1.287       .  A
O1715     Zr1725   2.398       .  S
O1715      C1734   1.281       .  A
O1716     Zr1724   2.418       .  S
O1716      C1735   1.284       .  A
O1717      C1734   1.289       .  A
O1718     Zr1726   2.436       .  S
O1718      C1733   1.283       .  A
O1719     Zr1724   2.392       .  S
O1719     Zr1726   2.372       .  S
O1720     Zr1725   2.387       .  S
O1720     Zr1726   2.377       .  S
O1720      H1755   0.966       .  S
O1721     Zr1724   2.399       .  S
O1721     Zr1741   2.400       .  S
O1721      H1758   0.966       .  S
O1722     Zr1725   2.389       .  S
O1722     Zr1741   2.398       .  S
Zr1723     O1748   2.445       .  S
Zr1723     O1742   2.435       .  S
Zr1723     O1750   2.439       .  S
Zr1723     O1738   2.443       .  S
Zr1723     O1729   2.403       .  S
Zr1723     O1730   2.405       .  S
Zr1723     O1731   2.383       .  S
Zr1723     O1732   2.379       .  S
Zr1724     O1743   2.436       .  S
Zr1724     O1736   2.435       .  S
Zr1724     O1737   2.430       .  S
Zr1724     O1730   2.392       .  S
Zr1724     O1731   2.382       .  S
Zr1725     O1727   2.435       .  S
Zr1725     O1749   2.436       .  S
Zr1725     O1751   2.421       .  S
Zr1725     O1729   2.390       .  S
Zr1725     O1732   2.369       .  S
Zr1726     O1752   2.436       .  S
Zr1726     O1753   2.436       .  S
Zr1726     O1728   2.437       .  S
Zr1726     O1729   2.401       .  S
Zr1726     O1730   2.398       .  S
O1727      H1764   0.990       .  S
O1728      H1759   0.990       .  S
O1728      H1773   0.990       .  S
O1730      H1756   0.966       .  S
O1731     Zr1741   2.374       .  S
O1732     Zr1741   2.375       .  S
O1732      H1757   0.966       .  S
C1733      C1916   1.483       .  S
C1734      C1960   1.488       .  S
C1735      C1938   1.486       .  S
O1736      H1772   0.990       .  S
O1737      C1739   1.286       .  A
O1738      C1739   1.285       .  A
C1739      C1953   1.487       .  S
O1740     Zr1741   2.438       .  S
O1740      H1769   0.991       .  S
Zr1741     O1744   2.437       .  S
Zr1741     O1745   2.439       .  S
Zr1741     O1746   2.427       .  S
O1742      C1747   1.287       .  A
O1743      H1760   0.990       .  S
O1743      H1775   0.990       .  S
O1744      H1761   0.990       .  S
O1745      H1765   0.990       .  S
O1745      H1774   0.990       .  S
O1746      C1747   1.282       .  A
C1747      C1909   1.477       .  S
O1748      H1767   0.990       .  S
O1748      H1771   0.990       .  S
O1749      H1763   0.990       .  S
O1749      H1770   0.990       .  S
O1750      C1754   1.284       .  A
O1751      C1754   1.283       .  A
O1752      H1762   0.990       .  S
O1753      H1766   0.990       .  S
C1754      C1932   1.471       .  S
Zr1777     O1778   2.442       .  S
Zr1777     O1779   2.447       .  S
Zr1777     O2482   2.428   1_545  S
Zr1777     O1783   2.430       .  S
Zr1777     O2487   2.382   1_545  S
Zr1777     O1786   2.381       .  S
Zr1777     O2489   2.413   1_545  S
Zr1777     O1788   2.400       .  S
O1778      H1834   0.990   1_545  S
O1778      H2544   0.991   1_545  S
O1780     Zr2479   2.424       .  S
O1780      C1801   1.280       .  A
O1781     Zr1791   2.441       .  S
O1781      C1800   1.285       .  A
O1782     Zr1790   2.441       .  S
O1782      C1801   1.284       .  A
O1783      C1800   1.282       .  A
O1784     Zr1792   2.425       .  S
O1784      C1799   1.280       .  A
O1785     Zr2479   2.382       .  S
O1785     Zr1790   2.404       .  S
O1786     Zr1791   2.398       .  S
O1786      H1821   0.966       .  S
O1787     Zr2479   2.409       .  S
O1787     Zr1790   2.404       .  S
O1787     Zr2509   2.390       .  S
O1787      H1824   0.965       .  S
O1788     Zr1791   2.388       .  S
O1788     Zr1807   2.391       .  S
Zr1789     O1808   2.444       .  S
Zr1789     O1816   2.429   1_565  S
Zr1789     O1795   2.404   1_564  S
Zr1789     O2499   2.374       .  S
Zr1789     O1798   2.379   1_565  S
Zr1790     O1809   2.436       .  S
Zr1790     O1797   2.387   1_556  S
Zr1791     O1793   2.435       .  S
Zr1791     O1815   2.436       .  S
Zr1791     O1817   2.438   1_556  S
Zr1791     O1795   2.393       .  S
Zr1791     O1798   2.393   1_556  S
Zr1792     O1818   2.436       .  S
Zr1792     O1819   2.436       .  S
Zr1792     O2496   2.437   1_545  S
Zr1792     O2498   2.399   1_545  S
O1793      H1830   0.990       .  S
O1794     Zr2494   2.436       .  S
O1794      H1825   0.990       .  S
O1794      H1839   0.990       .  S
O1796     Zr2494   2.401       .  S
O1796      H1822   0.966   1_556  S
O1797     Zr2491   2.376       .  S
O1797     Zr2509   2.375   1_554  S
O1798     Zr1807   2.374   1_554  S
O1798      H1823   0.966       .  S
C1799      C1957   1.446       .  S
C1800      C1929   1.439       .  S
C1801      C1936   1.432       .  S
O1802      H1838   0.990       .  S
O1803      C1805   1.289       .  A
O1804      C1805   1.280       .  A
C1805      C2046   1.443       .  S
O1806     Zr1807   2.439       .  S
O1806      H1835   0.990       .  S
Zr1807     O2512   2.438   1_545  S
Zr1807     O1811   2.439       .  S
Zr1807     O1812   2.428   1_546  S
Zr1807     O2489   2.394   1_545  S
Zr1807     O2499   2.370   1_546  S
O1808      C1813   1.285       .  A
O1809      H1826   0.990       .  S
O1809      H1841   0.990       .  S
O1810     Zr2509   2.437       .  S
O1810      H1827   0.990       .  S
O1811      H1831   0.990   1_556  S
O1811      H1840   0.990       .  S
O1812      C1813   1.281       .  A
C1813      C2106   1.443       .  S
O1814      H1833   0.990   1_565  S
O1814      H2539   0.990       .  S
O1815      H1829   0.990       .  S
O1815      H1836   0.990       .  S
O1816      C1820   1.283       .  A
O1817      C1820   1.284       .  A
O1818      H1828   0.990       .  S
O1819      H2534   0.990   1_556  S
C1820      C2084   1.437       .  S
H1832      O2521   0.990   1_554  S
H1837      O2516   0.990       .  S
H1842      O2480   0.990       .  S
Zr1843     O1844   2.442       .  S
Zr1843     O1845   2.444       .  S
Zr1843     O1846   2.420       .  S
Zr1843     O1849   2.426       .  S
Zr1843     O1851   2.384       .  S
Zr1843     O1852   2.381       .  S
Zr1843     O1853   2.412       .  S
Zr1843     O1854   2.401       .  S
O1844      H1900   0.990       .  S
O1844      H1908   0.990       .  S
O1845      C1865   1.284       .  A
O1846      C1867   1.279       .  A
O1847     Zr1857   2.446       .  S
O1847      C1866   1.285       .  A
O1848     Zr1856   2.457       .  S
O1848      C1867   1.287       .  A
O1849      C1866   1.282       .  A
O1850     Zr1858   2.408       .  S
O1850      C1865   1.277       .  A
O1851     Zr1856   2.399       .  S
O1851     Zr1858   2.380       .  S
O1852     Zr1857   2.394       .  S
O1852     Zr1858   2.381       .  S
O1852      H1887   0.966       .  S
O1853     Zr1856   2.406       .  S
O1853     Zr1873   2.396       .  S
O1853      H1890   0.965       .  S
O1854     Zr1857   2.391       .  S
O1854     Zr1873   2.398       .  S
Zr1855     O1880   2.449       .  S
Zr1855     O1874   2.438       .  S
Zr1855     O1882   2.425       .  S
Zr1855     O1870   2.413       .  S
Zr1855     O1861   2.399       .  S
Zr1855     O1862   2.404       .  S
Zr1855     O1863   2.379       .  S
Zr1855     O1864   2.380       .  S
Zr1856     O1875   2.436       .  S
Zr1856     O1868   2.436       .  S
Zr1856     O1869   2.464       .  S
Zr1856     O1862   2.399       .  S
Zr1856     O1863   2.393       .  S
Zr1857     O1859   2.434       .  S
Zr1857     O1881   2.439       .  S
Zr1857     O1883   2.432       .  S
Zr1857     O1861   2.394       .  S
Zr1857     O1864   2.397       .  S
Zr1858     O1884   2.435       .  S
Zr1858     O1885   2.435       .  S
Zr1858     O1860   2.437       .  S
Zr1858     O1861   2.391       .  S
Zr1858     O1862   2.390       .  S
O1859      H1896   0.990       .  S
O1860      H1891   0.990       .  S
O1860      H1905   0.990       .  S
O1862      H1888   0.966       .  S
O1863     Zr1873   2.374       .  S
O1864     Zr1873   2.377       .  S
O1864      H1889   0.966       .  S
C1865      C1952   1.434       .  S
C1866      C1914   1.441       .  S
C1867      C1973   1.439       .  S
O1868      H1904   0.990       .  S
O1869      C1871   1.290       .  A
O1870      C1871   1.279       .  A
C1871      C2033   1.441       .  S
O1872     Zr1873   2.439       .  S
O1872      H1901   0.990       .  S
Zr1873     O1876   2.435       .  S
Zr1873     O1877   2.439       .  S
Zr1873     O1878   2.434       .  S
O1874      C1879   1.284       .  A
O1875      H1892   0.990       .  S
O1875      H1907   0.990       .  S
O1876      H1893   0.990       .  S
O1877      H1897   0.990       .  S
O1877      H1906   0.990       .  S
O1878      C1879   1.283       .  A
C1879      C2013   1.443       .  S
O1880      H1899   0.990       .  S
O1880      H1903   0.990       .  S
O1881      H1895   0.990       .  S
O1881      H1902   0.990       .  S
O1882      C1886   1.282       .  A
O1883      C1886   1.283       .  A
O1884      H1894   0.990       .  S
O1885      H1898   0.990       .  S
C1886      C1994   1.432       .  S
C1909      C1910   1.340       .  D
C1909      H1911   1.087       .  S
C1910      H1912   1.087       .  S
C1913      C1914   1.209       .  T
C1915      C1916   1.345       .  D
C1915      H1917   1.087       .  S
C1916      H1918   1.086       .  S
C1919      C1920   1.408       .  A
C1919      C1924   1.400       .  A
C1919      H1925   1.083       .  S
C1920      C1921   1.404       .  A
C1921      C1922   1.394       .  A
C1921      H1926   1.083       .  S
C1922      C1923   1.407       .  A
C1922      H1927   1.083       .  S
C1923      C1924   1.404       .  A
C1924      H1928   1.083       .  S
C1929      C1930   1.208       .  T
C1931      C1932   1.341       .  D
C1931      H1933   1.087       .  S
C1932      H1934   1.087       .  S
C1935      C1936   1.205       .  T
C1937      C1938   1.346       .  D
C1937      H1939   1.087       .  S
C1938      H1940   1.086       .  S
C1941      C1942   1.405       .  A
C1941      C1946   1.405       .  A
C1941      H1947   1.083       .  S
C1942      C1943   1.406       .  A
C1943      C1944   1.394       .  A
C1943      H1948   1.083       .  S
C1944      C1945   1.405       .  A
C1944      H1949   1.083       .  S
C1945      C1946   1.410       .  A
C1946      H1950   1.083       .  S
C1951      C1952   1.206       .  T
C1953      C1954   1.344       .  D
C1953      H1955   1.086       .  S
C1954      H1956   1.087       .  S
C1957      C1958   1.212       .  T
C1959      C1960   1.348       .  D
C1959      H1961   1.088       .  S
C1960      H1962   1.086       .  S
C1963      C1964   1.409       .  A
C1963      C1968   1.397       .  A
C1963      H1969   1.083       .  S
C1964      C1965   1.404       .  A
C1965      C1966   1.401       .  A
C1965      H1970   1.083       .  S
C1966      C1967   1.410       .  A
C1966      H1971   1.083       .  S
C1967      C1968   1.403       .  A
C1968      H1972   1.083       .  S
C1973      C1974   1.209       .  T
C1975      C1976   1.345       .  D
C1975      H1977   1.088       .  S
C1976      H1978   1.086       .  S
C1979      C1980   1.344       .  D
C1979      H1981   1.087       .  S
C1983      C1984   1.409       .  A
C1983      C1988   1.400       .  A
C1984      C1985   1.404       .  A
C1985      C1986   1.398       .  A
C1985      H1990   1.083       .  S
C1986      C1987   1.409       .  A
C1986      H1991   1.083       .  S
C1987      C1988   1.405       .  A
C1988      H1992   1.083       .  S
C1993      C1994   1.204       .  T
C1995      C1996   1.344       .  D
C1995      H1997   1.086       .  S
C1996      H1998   1.087       .  S
C1999      C2000   1.343       .  D
C1999      H2001   1.087       .  S
C2000      H2002   1.087       .  S
C2003      C2004   1.407       .  A
C2003      C2008   1.404       .  A
C2003      H2009   1.083       .  S
C2004      C2005   1.411       .  A
C2005      C2006   1.406       .  A
C2005      H2010   1.083       .  S
C2006      C2007   1.407       .  A
C2006      H2011   1.083       .  S
C2007      C2008   1.410       .  A
C2008      H2012   1.083       .  S
C2013      C2014   1.211       .  T
C2015      C2016   1.352       .  D
C2015      H2017   1.087       .  S
C2016      H2018   1.086       .  S
C2019      C2020   1.341       .  D
C2019      H2021   1.087       .  S
C2020      H2022   1.087       .  S
C2023      C2726   1.410       .  A
C2023      C2028   1.401   1_565  A
C2023      H2029   1.083       .  S
C2024      C2725   1.410       .  A
C2024      C2025   1.409       .  A
C2025      C2728   1.410       .  A
C2025      H2030   1.083       .  S
C2026      C2727   1.411       .  A
C2026      C2027   1.412       .  A
C2026      H2031   1.083       .  S
C2027      C2028   1.406       .  A
C2028      H2032   1.083       .  S
C2033      C2034   1.210       .  T
C2035      C2036   1.204       .  T
C2037      C2038   1.210       .  T
C2039      C2040   1.211       .  T
C2041      C2042   1.344       .  D
C2041      H2043   1.087       .  S
C2042      H2044   1.087       .  S
C2045      C2046   1.211       .  T
C2047      C2048   1.341       .  D
C2047      H2049   1.087       .  S
C2048      H2050   1.087       .  S
C2051      C2052   1.407       .  A
C2051      C2056   1.404       .  A
C2051      H2057   1.083   1_655  S
C2052      C2053   1.406       .  A
C2053      C2054   1.394       .  A
C2053      H2058   1.083       .  S
C2054      C2055   1.405       .  A
C2054      H2059   1.083       .  S
C2055      C2056   1.408       .  A
C2056      H2060   1.083       .  S
C2061      C2062   1.207       .  T
C2063      C2064   1.348       .  D
C2063      H2065   1.086       .  S
C2064      C2125   1.477       .  S
C2064      H2066   1.087       .  S
C2067      C2068   1.206       .  T
C2069      C2070   1.345       .  D
C2069      H2071   1.086       .  S
C2070      H2072   1.087       .  S
C2073      C2074   1.409       .  A
C2073      C2078   1.403       .  A
C2073      H2079   1.083       .  S
C2074      C2075   1.405       .  A
C2075      C2076   1.398       .  A
C2075      H2080   1.083   1_655  S
C2076      C2077   1.408       .  A
C2076      H2081   1.083       .  S
C2077      C2078   1.406       .  A
C2078      H2082   1.083       .  S
C2083      C2084   1.207       .  T
C2085      C2086   1.348       .  D
C2085      H2087   1.086       .  S
C2086      H2088   1.087       .  S
C2089      C2090   1.211       .  T
C2091      C2092   1.344       .  D
C2091      H2093   1.086       .  S
C2092      H2094   1.088       .  S
C2095      C2096   1.402       .  A
C2095      C2100   1.395       .  A
C2095      H2101   1.083       .  S
C2096      C2097   1.412       .  A
C2097      C2098   1.404       .  A
C2097      H2102   1.083       .  S
C2098      C2099   1.404       .  A
C2098      H2103   1.083       .  S
C2099      C2100   1.408       .  A
C2100      H2104   1.083       .  S
C2105      C2808   1.209       .  T
C2106      C2807   1.211       .  T
C2107      N2108   1.363       .  A
C2107      C2807   1.444       .  S
N2108      C2109   1.361       .  A
C2109      N2110   1.359       .  A
C2109      C2793   1.482       .  S
C2111      N2112   1.361       .  A
C2111      C2798   1.485       .  S
C2113      N2114   1.362       .  A
C2113      N2118   1.366       .  A
C2113      C2791   1.441       .  S
N2114      C2115   1.360       .  A
C2115      N2116   1.352       .  A
C2115      C2801   1.483       .  S
N2116      C2117   1.352       .  A
C2117      N2118   1.361       .  A
C2117      C2788   1.472       .  S
C2119      N2120   1.361       .  A
C2119      N2124   1.358       .  A
C2119      C2772   1.476       .  S
C2121      N2122   1.360       .  A
C2121      C2776   1.493   1_455  S
C2123      N2124   1.355       .  A
C2123      C2785   1.437       .  S
C2125      N2126   1.366       .  A
C2125      N2130   1.358       .  A
N2126      C2127   1.369       .  A
C2127      N2128   1.360       .  A
C2127      C2779   1.493       .  S
N2128      C2129   1.353       .  A
C2129      N2130   1.353       .  A
C2129      C2770   1.438       .  S
C2131      N2132   1.361       .  A
C2131      N2136   1.364       .  A
C2131      C2749   1.481       .  S
C2133      N2134   1.351       .  A
C2133      C2764   1.436       .  S
N2134      C2135   1.356   1_655  A
C2135      C2754   1.485   1_455  S
C2137      N2138   1.356       .  A
C2137      N2142   1.361       .  A
C2137      C2743   1.482       .  S
N2138      C2139   1.361       .  A
C2139      N2140   1.361       .  A
C2139      C2757   1.485       .  S
N2140      C2141   1.359       .  A
C2141      N2142   1.359       .  A
C2141      C2747   1.442       .  S
Zr2143     O2144   2.437       .  S
Zr2143     O2145   2.417       .  S
Zr2143     O2146   2.444       .  S
Zr2143     O2149   2.446       .  S
Zr2143     O2151   2.380       .  S
Zr2143     O2152   2.383       .  S
Zr2143     O2153   2.405       .  S
Zr2143     O2154   2.401       .  S
O2144      H2200   0.990       .  S
O2144      H2208   0.990       .  S
O2145      C2165   1.281       .  A
O2146      C2167   1.286       .  A
O2147     Zr2157   2.418       .  S
O2147      C2166   1.282       .  A
O2148     Zr2156   2.428       .  S
O2148      C2167   1.284       .  A
O2149      C2166   1.287       .  A
O2150     Zr2158   2.447       .  S
O2150      C2165   1.287       .  A
O2151     Zr2156   2.378       .  S
O2151     Zr2158   2.364       .  S
O2152     Zr2157   2.383       .  S
O2152     Zr2158   2.368       .  S
O2152      H2187   0.966       .  S
O2153     Zr2156   2.391       .  S
O2153     Zr2173   2.396       .  S
O2153      H2190   0.966       .  S
O2154     Zr2157   2.389       .  S
O2154     Zr2173   2.399       .  S
Zr2155     O2180   2.441       .  S
Zr2155     O2174   2.447       .  S
Zr2155     O2182   2.462       .  S
Zr2155     O2170   2.455       .  S
Zr2155     O2161   2.410       .  S
Zr2155     O2162   2.418       .  S
Zr2155     O2163   2.389       .  S
Zr2155     O2164   2.382       .  S
Zr2156     O2175   2.437       .  S
Zr2156     O2168   2.434       .  S
Zr2156     O2169   2.411       .  S
Zr2156     O2162   2.395       .  S
Zr2156     O2163   2.387       .  S
Zr2157     O2159   2.435       .  S
Zr2157     O2181   2.437       .  S
Zr2157     O2183   2.415       .  S
Zr2157     O2161   2.390       .  S
Zr2157     O2164   2.383       .  S
Zr2158     O2184   2.435       .  S
Zr2158     O2185   2.435       .  S
Zr2158     O2160   2.437       .  S
Zr2158     O2161   2.408       .  S
Zr2158     O2162   2.396       .  S
O2159      H2196   0.990       .  S
O2160      H2191   0.990       .  S
O2160      H2205   0.990       .  S
O2162      H2188   0.966       .  S
O2163     Zr2173   2.375       .  S
O2164     Zr2173   2.373       .  S
O2164      H2189   0.966       .  S
C2165      C2750   1.477       .  S
C2166      C2794   1.473       .  S
C2167      C2771   1.476       .  S
O2168      H2204   0.990       .  S
O2169      C2171   1.283       .  A
O2170      C2171   1.287       .  A
C2171      C2787   1.485       .  S
O2172     Zr2173   2.439       .  S
O2172      H2201   0.990       .  S
Zr2173     O2176   2.437       .  S
Zr2173     O2177   2.440       .  S
Zr2173     O2178   2.423       .  S
O2174      C2179   1.288       .  A
O2175      H2192   0.990       .  S
O2175      H2207   0.990       .  S
O2176      H2193   0.990       .  S
O2177      H2197   0.990       .  S
O2177      H2206   0.990       .  S
O2178      C2179   1.281       .  A
C2179      C2744   1.479       .  S
O2180      H2199   0.990       .  S
O2180      H2203   0.990       .  S
O2181      H2195   0.990       .  S
O2181      H2202   0.990       .  S
O2182      C2186   1.289       .  A
O2183      C2186   1.283       .  A
O2184      H2194   0.990       .  S
O2185      H2198   0.990       .  S
C2186      C2765   1.485       .  S
Zr2209     O2210   2.442       .  S
Zr2209     O2211   2.439       .  S
Zr2209     O2212   2.434       .  S
Zr2209     O2215   2.422       .  S
Zr2209     O2217   2.378       .  S
Zr2209     O2218   2.382       .  S
Zr2209     O2219   2.408       .  S
Zr2209     O2220   2.402       .  S
O2210      H2266   0.991       .  S
O2210      H2274   0.990       .  S
O2211      C2231   1.282       .  A
O2212      C2233   1.282       .  A
O2213     Zr2223   2.461       .  S
O2213      C2232   1.289       .  A
O2214     Zr2222   2.404       .  S
O2214      C2233   1.277       .  A
O2215      C2232   1.281       .  A
O2216     Zr2224   2.428       .  S
O2216      C2231   1.281       .  A
O2217     Zr2222   2.400       .  S
O2217     Zr2224   2.373       .  S
O2218     Zr2223   2.401       .  S
O2218     Zr2224   2.381       .  S
O2218      H2253   0.966       .  S
O2219     Zr2222   2.401       .  S
O2219     Zr2239   2.394       .  S
O2219      H2256   0.966       .  S
O2220     Zr2223   2.395       .  S
O2220     Zr2239   2.396       .  S
Zr2221     O2246   2.448       .  S
Zr2221     O2240   2.433       .  S
Zr2221     O2248   2.414       .  S
Zr2221     O2236   2.436       .  S
Zr2221     O2227   2.403       .  S
Zr2221     O2228   2.401       .  S
Zr2221     O2229   2.371       .  S
Zr2221     O2230   2.387       .  S
Zr2222     O2241   2.437       .  S
Zr2222     O2234   2.435       .  S
Zr2222     O2235   2.427       .  S
Zr2222     O2228   2.391       .  S
Zr2222     O2229   2.381       .  S
Zr2223     O2225   2.436       .  S
Zr2223     O2247   2.437       .  S
Zr2223     O2249   2.457       .  S
Zr2223     O2227   2.393       .  S
Zr2223     O2230   2.396       .  S
Zr2224     O2250   2.434       .  S
Zr2224     O2251   2.435       .  S
Zr2224     O2226   2.437       .  S
Zr2224     O2227   2.395       .  S
Zr2224     O2228   2.400       .  S
O2225      H2262   0.990       .  S
O2226      H2257   0.990       .  S
O2226      H2271   0.990       .  S
O2228      H2254   0.966       .  S
O2229     Zr2239   2.375       .  S
O2230     Zr2239   2.384       .  S
O2230      H2255   0.966       .  S
C2231      C2739   1.442       .  S
C2232      C2741   1.446       .  S
C2233      C2738   1.422       .  S
O2234      H2270   0.990       .  S
O2235      C2237   1.281       .  A
O2236      C2237   1.283       .  A
C2237      C2763   1.436       .  S
O2238     Zr2239   2.440       .  S
O2238      H2267   0.990       .  S
Zr2239     O2242   2.438       .  S
Zr2239     O2243   2.437       .  S
Zr2239     O2244   2.430       .  S
O2240      C2245   1.283       .  A
O2241      H2258   0.990       .  S
O2241      H2273   0.990       .  S
O2242      H2259   0.990       .  S
O2243      H2263   0.990       .  S
O2243      H2272   0.990       .  S
O2244      C2245   1.282       .  A
C2245      C2769   1.437       .  S
O2246      H2265   0.990       .  S
O2246      H2269   0.990       .  S
O2247      H2261   0.990       .  S
O2247      H2268   0.990       .  S
O2248      C2252   1.280       .  A
O2249      C2252   1.288       .  A
O2250      H2260   0.990       .  S
O2251      H2264   0.990       .  S
C2252      C2792   1.439       .  S
C2275      N2276   1.371       .  A
C2275      N2280   1.356       .  A
C2275      C2721   1.486       .  S
N2276      C2277   1.369       .  A
C2277      N2278   1.362       .  A
C2277      C2726   1.503       .  S
N2278      C2279   1.356       .  A
C2279      N2280   1.352       .  A
C2279      C2736   1.436       .  S
C2281      N2282   1.365       .  A
C2281      N2286   1.361       .  A
C2281      C2717   1.491       .  S
N2282      C2283   1.366       .  A
C2283      N2284   1.364       .  A
C2283      C2729   1.505       .  S
N2284      C2285   1.363       .  A
C2285      N2286   1.360       .  A
C2285      C2742   1.447       .  S
C2287      N2288   1.365       .  A
C2287      N2292   1.354       .  A
C2287      C2701   1.484       .  S
N2288      C2289   1.369       .  A
C2289      N2290   1.367       .  A
C2289      C2706   1.502       .  S
N2290      C2291   1.362       .  A
C2291      N2292   1.353       .  A
C2291      C2716   1.443       .  S
C2293      N2294   1.369       .  A
C2293      N2298   1.359       .  A
C2293      C2697   1.491       .  S
N2294      C2295   1.367       .  A
C2295      N2296   1.362       .  A
C2295      C2709   1.501       .  S
N2296      C2297   1.358       .  A
C2297      N2298   1.357       .  A
C2297      C2740   1.442       .  S
C2299      N2300   1.353       .  A
C2299      N2304   1.355       .  A
C2299      C2695   1.430       .  S
N2300      C2301   1.357       .  A
C2301      N2302   1.364       .  A
C2301      C2686   1.484       .  S
N2302      C2303   1.361       .  A
C2303      N2304   1.357       .  A
C2303      C2681   1.470       .  S
C2305      N2306   1.349       .  A
C2305      N2310   1.348       .  A
N2306      C2307   1.352       .  A
C2307      N2308   1.365       .  A
C2307      C2677   1.467       .  S
N2308      C2309   1.367       .  A
C2309      N2310   1.357       .  A
C2309      C2689   1.482       .  S
Zr2311     O2312   2.435       .  S
Zr2311     O2313   2.407       .  S
Zr2311     O2314   2.479       .  S
Zr2311     O2317   2.458       .  S
Zr2311     O2319   2.377       .  S
O2312      H2368   0.990       .  S
O2312      H2376   0.990       .  S
O2313      C2333   1.279       .  A
O2314      C2335   1.294       .  A
O2315     Zr2325   2.413       .  S
O2315      C2334   1.283       .  A
O2316     Zr2324   2.408       .  S
O2318      C2333   1.293       .  A
O2320     Zr2325   2.387       .  S
O2320     Zr2326   2.364       .  S
O2320      H2355   0.966       .  S
O2321     Zr2324   2.394       .  S
O2321      H2358   0.966       .  S
O2322     Zr2325   2.397   1_545  S
Zr2323     O2348   2.436       .  S
Zr2323     O2342   2.417       .  S
Zr2323     O2350   2.467       .  S
Zr2323     O2338   2.452       .  S
Zr2323     O2329   2.407       .  S
Zr2323     O2330   2.418       .  S
Zr2323     O2331   2.377       .  S
Zr2323     O2332   2.376       .  S
Zr2324     O2343   2.436       .  S
Zr2324     O2336   2.436       .  S
Zr2325     O2327   2.435       .  S
Zr2325     O2349   2.437       .  S
Zr2326     O2352   2.436       .  S
Zr2326     O2353   2.435   1_565  S
O2327      H2364   0.990       .  S
O2328      H2359   0.990       .  S
O2328      H2373   0.990       .  S
O2330      H2356   0.966       .  S
O2331     Zr2341   2.358       .  S
O2332     Zr2341   2.369       .  S
O2332      H2357   0.966       .  S
C2333      C2698   1.487       .  S
C2334      C2682   1.477       .  S
C2335      C2722   1.483       .  S
O2336      H2372   0.990       .  S
O2337      C2339   1.283       .  A
O2338      C2339   1.287       .  A
C2339      C2678   1.475       .  S
O2340     Zr2341   2.438       .  S
O2340      H2369   0.991       .  S
Zr2341     O2344   2.439       .  S
Zr2341     O2345   2.438       .  S
Zr2341     O2346   2.467       .  S
O2342      C2347   1.281       .  A
O2343      H2360   0.990       .  S
O2343      H2375   0.990       .  S
O2344      H2361   0.990       .  S
O2345      H2365   0.990       .  S
O2345      H2374   0.990       .  S
O2346      C2347   1.292       .  A
C2347      C2702   1.486       .  S
O2348      H2367   0.990       .  S
O2348      H2371   0.990       .  S
O2349      H2363   0.990       .  S
O2349      H2370   0.990       .  S
O2350      C2354   1.292       .  A
O2351      C2354   1.285       .  A
O2352      H2362   0.990       .  S
C2354      C2718   1.494       .  S
C2377      N2378   1.356       .  A
C2377      N2382   1.358       .  A
C2377      C2676   1.432       .  S
N2378      C2379   1.359       .  A
C2379      N2380   1.354       .  A
C2379      C2666   1.482       .  S
N2380      C2381   1.359       .  A
C2381      N2382   1.356       .  A
C2381      C2661   1.475       .  S
C2383      N2388   1.361       .  A
C2383      C2660   1.444       .  S
N2384      C2385   1.361       .  A
C2385      C2669   1.480       .  S
N2386      C2387   1.358       .  A
C2387      N2388   1.360       .  A
C2387      C2656   1.482       .  S
C2389      C2639   1.474       .  S
N2390      C2391   1.352       .  A
C2391      N2392   1.351       .  A
C2391      C2653   1.435       .  S
N2392      C2393   1.359       .  A
C2393      N2394   1.368       .  A
C2393      C2644   1.490       .  S
C2395      N2396   1.360       .  A
C2395      N2400   1.358       .  A
N2396      C2397   1.364       .  A
C2397      N2398   1.359       .  A
C2397      C2647   1.488       .  S
N2398      C2399   1.356       .  A
C2399      N2400   1.352       .  A
C2399      C2637   1.430       .  S
C2401      N2402   1.358       .  A
C2401      N2406   1.361       .  A
C2401      C2617   1.475       .  S
N2402      C2403   1.357       .  A
C2403      N2404   1.359       .  A
C2403      C2622   1.485       .  S
N2404      C2405   1.356       .  A
C2405      N2406   1.360       .  A
C2405      C2632   1.439       .  S
C2407      N2408   1.362       .  A
C2407      N2412   1.353       .  A
N2408      C2409   1.361       .  A
C2409      N2410   1.361       .  A
C2409      C2615   1.443       .  S
N2410      C2411   1.361       .  A
C2411      N2412   1.355       .  A
C2411      C2625   1.485       .  S
Zr2413     O2414   2.438       .  S
Zr2413     O2415   2.412       .  S
Zr2413     O2416   2.462       .  S
Zr2413     O2419   2.442       .  S
Zr2413     O2421   2.376       .  S
Zr2413     O2422   2.388       .  S
Zr2413     O2423   2.405       .  S
Zr2413     O2424   2.400       .  S
O2414      H2470   0.990       .  S
O2414      H2478   0.990       .  S
O2415      C2435   1.283       .  A
O2416      C2437   1.289       .  A
O2417     Zr2427   2.401       .  S
O2417      C2436   1.279       .  A
O2418     Zr2426   2.409       .  S
O2418      C2437   1.282       .  A
O2419      C2436   1.287       .  A
O2420     Zr2428   2.457       .  S
O2420      C2435   1.288       .  A
O2421     Zr2426   2.380       .  S
O2421     Zr2428   2.364       .  S
O2422     Zr2427   2.373       .  S
O2422     Zr2428   2.369       .  S
O2422      H2457   0.966       .  S
O2423     Zr2426   2.392       .  S
O2423     Zr2443   2.402       .  S
O2423      H2460   0.966       .  S
O2424     Zr2427   2.393       .  S
O2424     Zr2443   2.391       .  S
Zr2425     O2450   2.441       .  S
Zr2425     O2444   2.438       .  S
Zr2425     O2452   2.446       .  S
Zr2425     O2440   2.444       .  S
Zr2425     O2431   2.411       .  S
Zr2425     O2432   2.413       .  S
Zr2425     O2433   2.378       .  S
Zr2425     O2434   2.381       .  S
Zr2426     O2445   2.436       .  S
Zr2426     O2438   2.434       .  S
Zr2426     O2439   2.417       .  S
Zr2426     O2432   2.390       .  S
Zr2426     O2433   2.380       .  S
Zr2427     O2429   2.435       .  S
Zr2427     O2451   2.437       .  S
Zr2427     O2453   2.415       .  S
Zr2427     O2431   2.379       .  S
Zr2427     O2434   2.383       .  S
Zr2428     O2454   2.437       .  S
Zr2428     O2455   2.434       .  S
Zr2428     O2430   2.436       .  S
Zr2428     O2431   2.405       .  S
Zr2428     O2432   2.410       .  S
O2429      H2466   0.990       .  S
O2430      H2461   0.990       .  S
O2430      H2475   0.990       .  S
O2432      H2458   0.966       .  S
O2433     Zr2443   2.373       .  S
O2434     Zr2443   2.380       .  S
O2434      H2459   0.966       .  S
C2435      C2618   1.483       .  S
C2436      C2662   1.460       .  S
C2437      C2640   1.486       .  S
O2438      H2474   0.990       .  S
O2439      C2441   1.281       .  A
O2440      C2441   1.286       .  A
C2441      C2655   1.473       .  S
O2442     Zr2443   2.438       .  S
O2442      H2471   0.990       .  S
Zr2443     O2446   2.437       .  S
Zr2443     O2447   2.440       .  S
Zr2443     O2448   2.430       .  S
O2444      C2449   1.287       .  A
O2445      H2462   0.990       .  S
O2445      H2477   0.990       .  S
O2446      H2463   0.990       .  S
O2447      H2467   0.990       .  S
O2447      H2476   0.990       .  S
O2448      C2449   1.282       .  A
C2449      C2611   1.483       .  S
O2450      H2469   0.990       .  S
O2450      H2473   0.990       .  S
O2451      H2465   0.990       .  S
O2451      H2472   0.990       .  S
O2452      C2456   1.286       .  A
O2453      C2456   1.280       .  A
O2454      H2464   0.990       .  S
O2455      H2468   0.990       .  S
C2456      C2634   1.468       .  S
Zr2479     O2480   2.441       .  S
Zr2479     O2481   2.442       .  S
Zr2479     O2485   2.425       .  S
Zr2479     O2488   2.380       .  S
Zr2479     O2490   2.400       .  S
O2480      H2536   0.990       .  S
O2482      C2503   1.280       .  A
O2483     Zr2493   2.442       .  S
O2483      C2502   1.285       .  A
O2484     Zr2492   2.429       .  S
O2484      C2503   1.281       .  A
O2485      C2502   1.282       .  A
O2486     Zr2494   2.438       .  S
O2486      C2501   1.283       .  A
O2487     Zr2492   2.404       .  S
O2488     Zr2493   2.400       .  S
O2488      H2523   0.966       .  S
O2489     Zr2492   2.408       .  S
O2489      H2526   0.965       .  S
O2490     Zr2493   2.394       .  S
O2490     Zr2509   2.393       .  S
Zr2491     O2510   2.443       .  S
Zr2491     O2518   2.415       .  S
Zr2491     O2497   2.402   1_554  S
Zr2491     O2500   2.378       .  S
Zr2492     O2511   2.438       .  S
Zr2492     O2499   2.386   1_556  S
Zr2493     O2495   2.435       .  S
Zr2493     O2517   2.437       .  S
Zr2493     O2519   2.449   1_556  S
Zr2493     O2497   2.391       .  S
Zr2493     O2500   2.390   1_556  S
Zr2494     O2520   2.436       .  S
Zr2494     O2521   2.436       .  S
O2495      H2532   0.990       .  S
O2496      H2527   0.990       .  S
O2496      H2541   0.990       .  S
O2498      H2524   0.966   1_556  S
O2500     Zr2509   2.378   1_554  S
O2500      H2525   0.966       .  S
C2501      C2659   1.444       .  S
C2502      C2631   1.438       .  S
C2503      C2638   1.428       .  S
O2504      H2540   0.990       .  S
O2505      C2507   1.288       .  A
O2506      C2507   1.280       .  A
C2507      C2748   1.440       .  S
O2508     Zr2509   2.440       .  S
O2508      H2537   0.990       .  S
Zr2509     O2513   2.439       .  S
Zr2509     O2514   2.427   1_556  S
O2510      C2515   1.285       .  A
O2511      H2528   0.990       .  S
O2511      H2543   0.990       .  S
O2512      H2529   0.990       .  S
O2513      H2533   0.990   1_556  S
O2513      H2542   0.990       .  S
O2514      C2515   1.282       .  A
C2515      C2808   1.441       .  S
O2516      H2535   0.990       .  S
O2517      H2531   0.990       .  S
O2517      H2538   0.990       .  S
O2518      C2522   1.280       .  A
O2519      C2522   1.286       .  A
O2520      H2530   0.990       .  S
C2522      C2786   1.436       .  S
Zr2545     O2546   2.441       .  S
Zr2545     O2547   2.437       .  S
Zr2545     O2548   2.411       .  S
Zr2545     O2551   2.420       .  S
Zr2545     O2553   2.380       .  S
Zr2545     O2554   2.375       .  S
Zr2545     O2555   2.406       .  S
Zr2545     O2556   2.401       .  S
O2546      H2602   0.991       .  S
O2546      H2610   0.990       .  S
O2547      C2567   1.283       .  A
O2548      C2569   1.278       .  A
O2549     Zr2559   2.455       .  S
O2549      C2568   1.287       .  A
O2550     Zr2558   2.442       .  S
O2550      C2569   1.284       .  A
O2551      C2568   1.281       .  A
O2552     Zr2560   2.420       .  S
O2552      C2567   1.280       .  A
O2553     Zr2558   2.395       .  S
O2553     Zr2560   2.378       .  S
O2554     Zr2559   2.387       .  S
O2554     Zr2560   2.381       .  S
O2554      H2589   0.966       .  S
O2555     Zr2558   2.402       .  S
O2555     Zr2575   2.398       .  S
O2555      H2592   0.966       .  S
O2556     Zr2559   2.390       .  S
O2556     Zr2575   2.405       .  S
Zr2557     O2582   2.443       .  S
Zr2557     O2576   2.432       .  S
Zr2557     O2584   2.421       .  S
Zr2557     O2572   2.415       .  S
Zr2557     O2563   2.399       .  S
Zr2557     O2564   2.400       .  S
Zr2557     O2565   2.373       .  S
Zr2557     O2566   2.383       .  S
Zr2558     O2577   2.436       .  S
Zr2558     O2570   2.435       .  S
Zr2558     O2571   2.449       .  S
Zr2558     O2564   2.396       .  S
Zr2558     O2565   2.386       .  S
Zr2559     O2561   2.435       .  S
Zr2559     O2583   2.439       .  S
Zr2559     O2585   2.432       .  S
Zr2559     O2563   2.396       .  S
Zr2559     O2566   2.400       .  S
Zr2560     O2586   2.435       .  S
Zr2560     O2587   2.436       .  S
Zr2560     O2562   2.437       .  S
Zr2560     O2563   2.394       .  S
Zr2560     O2564   2.392       .  S
O2561      H2598   0.990       .  S
O2562      H2593   0.990       .  S
O2562      H2607   0.990       .  S
O2564      H2590   0.966       .  S
O2565     Zr2575   2.367       .  S
O2566     Zr2575   2.376       .  S
O2566      H2591   0.966       .  S
C2567      C2654   1.435       .  S
C2568      C2616   1.443       .  S
C2569      C2675   1.429       .  S
O2570      H2606   0.990       .  S
O2571      C2573   1.287       .  A
O2572      C2573   1.280       .  A
C2573      C2735   1.435       .  S
O2574     Zr2575   2.439       .  S
O2574      H2603   0.990       .  S
Zr2575     O2578   2.437       .  S
Zr2575     O2579   2.440       .  S
Zr2575     O2580   2.444       .  S
O2576      C2581   1.283       .  A
O2577      H2594   0.990       .  S
O2577      H2609   0.990       .  S
O2578      H2595   0.990       .  S
O2579      H2599   0.990       .  S
O2579      H2608   0.990       .  S
O2580      C2581   1.284       .  A
C2581      C2715   1.444       .  S
O2582      H2601   0.990       .  S
O2582      H2605   0.990       .  S
O2583      H2597   0.990       .  S
O2583      H2604   0.990       .  S
O2584      C2588   1.282       .  A
O2585      C2588   1.283       .  A
O2586      H2596   0.990       .  S
O2587      H2600   0.990       .  S
C2588      C2696   1.429       .  S
C2611      C2612   1.341       .  D
C2611      H2613   1.086       .  S
C2612      H2614   1.087       .  S
C2615      C2616   1.211       .  T
C2617      C2618   1.348       .  D
C2617      H2619   1.087       .  S
C2618      H2620   1.086       .  S
C2621      C2622   1.408       .  A
C2621      C2626   1.401       .  A
C2621      H2627   1.083       .  S
C2622      C2623   1.404       .  A
C2623      C2624   1.395       .  A
C2623      H2628   1.083       .  S
C2624      C2625   1.407       .  A
C2624      H2629   1.083       .  S
C2625      C2626   1.405       .  A
C2626      H2630   1.083       .  S
C2631      C2632   1.208       .  T
C2633      C2634   1.344       .  D
C2633      H2635   1.087       .  S
C2634      H2636   1.086       .  S
C2637      C2638   1.202       .  T
C2639      C2640   1.347       .  D
C2639      H2641   1.088       .  S
C2640      H2642   1.086       .  S
C2643      C2644   1.406       .  A
C2643      C2648   1.405       .  A
C2643      H2649   1.083       .  S
C2644      C2645   1.409       .  A
C2645      C2646   1.395       .  A
C2645      H2650   1.083       .  S
C2646      C2647   1.402       .  A
C2646      H2651   1.083       .  S
C2647      C2648   1.411       .  A
C2648      H2652   1.083       .  S
C2653      C2654   1.206       .  T
C2655      C2656   1.345       .  D
C2655      H2657   1.087       .  S
C2656      H2658   1.086       .  S
C2659      C2660   1.211       .  T
C2661      C2662   1.339       .  D
C2661      H2663   1.087       .  S
C2662      H2664   1.087       .  S
C2665      C2666   1.411       .  A
C2665      C2670   1.403       .  A
C2665      H2671   1.083       .  S
C2666      C2667   1.402       .  A
C2667      C2668   1.391       .  A
C2667      H2672   1.083       .  S
C2668      C2669   1.406       .  A
C2668      H2673   1.083       .  S
C2669      C2670   1.403       .  A
C2670      H2674   1.083       .  S
C2675      C2676   1.203       .  T
C2677      C2678   1.340       .  D
C2677      H2679   1.088       .  S
C2678      H2680   1.086       .  S
C2681      C2682   1.344       .  D
C2681      H2683   1.087       .  S
C2685      C2686   1.410       .  A
C2685      C2690   1.400       .  A
C2686      C2687   1.403       .  A
C2687      C2688   1.395       .  A
C2687      H2692   1.083       .  S
C2688      C2689   1.408       .  A
C2688      H2693   1.083       .  S
C2689      C2690   1.403       .  A
C2690      H2694   1.083       .  S
C2695      C2696   1.202       .  T
C2697      C2698   1.343       .  D
C2697      H2699   1.086       .  S
C2698      H2700   1.087       .  S
C2701      C2702   1.342       .  D
C2701      H2703   1.087       .  S
C2702      H2704   1.087       .  S
C2705      C2706   1.407       .  A
C2705      C2710   1.403       .  A
C2705      H2711   1.083       .  S
C2706      C2707   1.411       .  A
C2707      C2708   1.408       .  A
C2707      H2712   1.083       .  S
C2708      C2709   1.408       .  A
C2708      H2713   1.083       .  S
C2709      C2710   1.410       .  A
C2710      H2714   1.083       .  S
C2715      C2716   1.211       .  T
C2717      C2718   1.355       .  D
C2717      H2719   1.086       .  S
C2718      H2720   1.086       .  S
C2721      C2722   1.338       .  D
C2721      H2723   1.087       .  S
C2722      H2724   1.087   1_565  S
C2725      C2730   1.405       .  A
C2725      H2731   1.083       .  S
C2726      C2727   1.409   1_565  A
C2727      H2732   1.083       .  S
C2728      C2729   1.412       .  A
C2728      H2733   1.083       .  S
C2729      C2730   1.408       .  A
C2730      H2734   1.083       .  S
C2735      C2736   1.206       .  T
C2737      C2738   1.198       .  T
C2739      C2740   1.210       .  T
C2741      C2742   1.213       .  T
C2743      C2744   1.342       .  D
C2743      H2745   1.087       .  S
C2744      H2746   1.087       .  S
C2747      C2748   1.209       .  T
C2749      C2750   1.344       .  D
C2749      H2751   1.087       .  S
C2750      H2752   1.087       .  S
C2753      C2754   1.406       .  A
C2753      C2758   1.403       .  A
C2753      H2759   1.083   1_655  S
C2754      C2755   1.407       .  A
C2755      C2756   1.393       .  A
C2755      H2760   1.083       .  S
C2756      C2757   1.404       .  A
C2756      H2761   1.083       .  S
C2757      C2758   1.408       .  A
C2758      H2762   1.083       .  S
C2763      C2764   1.206       .  T
C2765      C2766   1.347       .  D
C2765      H2767   1.086       .  S
C2766      H2768   1.087       .  S
C2769      C2770   1.207       .  T
C2771      C2772   1.346       .  D
C2771      H2773   1.087       .  S
C2772      H2774   1.087       .  S
C2775      C2776   1.410       .  A
C2775      C2780   1.404       .  A
C2775      H2781   1.083       .  S
C2776      C2777   1.405       .  A
C2777      C2778   1.400       .  A
C2777      H2782   1.083   1_655  S
C2778      C2779   1.410       .  A
C2778      H2783   1.083       .  S
C2779      C2780   1.405       .  A
C2780      H2784   1.083       .  S
C2785      C2786   1.207       .  T
C2787      C2788   1.346       .  D
C2787      H2789   1.086       .  S
C2788      H2790   1.088       .  S
C2791      C2792   1.209       .  T
C2793      C2794   1.345       .  D
C2793      H2795   1.086       .  S
C2794      H2796   1.088       .  S
C2797      C2798   1.402       .  A
C2797      C2802   1.396       .  A
C2797      H2803   1.083       .  S
C2798      C2799   1.411       .  A
C2799      C2800   1.401       .  A
C2799      H2804   1.083       .  S
C2800      C2801   1.403       .  A
C2800      H2805   1.083       .  S
C2801      C2802   1.408       .  A
C2802      H2806   1.083       .  S
