geometry optimzed in LAMMPS
_audit_creation_date              2020-11-30 
_audit_creation_method            'lammps2cif' 
_symmetry_space_group_name_H-M    'P1' 
_symmetry_Int_Tables_number       1 
_symmetry_cell_setting            triclinic 
loop_ 
_symmetry_equiv_pos_as_xyz 
  x,y,z 
_cell_length_a                    44.10525724 
_cell_length_b                    25.51300857625784 
_cell_length_c                    23.04535028743376 
_cell_angle_alpha                 89.74214434965918 
_cell_angle_beta                  90.09770302005384 
_cell_angle_gamma                 91.11007025003691 
loop_ 
_atom_site_label 
_atom_site_type_symbol 
_atom_site_fract_x 
_atom_site_fract_y 
_atom_site_fract_z 
_atom_site_charge 
In1        In  0.51106820  0.07555963  0.24021788     1.36900
C2          C  0.45510508  0.10766383  0.22178201     0.77000
O3          O  0.50532030  0.99588249  0.19794881    -0.61400
O4          O  0.50319921  0.50899933  0.30142521    -0.52300
C5          C  0.56715480  0.09758209  0.21515748     0.69700
O6          O  0.55000963  0.13415708  0.22965027    -0.47200
C7          C  0.52114560  0.09248018  0.34711468     0.74400
O8          O  0.47093330  0.08898381  0.18108563    -0.59000
O9          O  0.52911187  0.05107645  0.32226295    -0.49100
O10         O  0.46980528  0.11879327  0.26656665    -0.55500
C11         C  0.50156776  0.48124786  0.25650449     0.84600
O12         O  0.55362932  0.05861219  0.19317890    -0.57400
O13         O  0.51106314  0.12879210  0.31563192    -0.60700
C14         C  0.82862243  0.10285094  0.26385198     0.85900
C15         C  0.82490708  0.11070045  0.32812962    -0.54300
C16         C  0.80057612  0.13772230  0.34760854     0.08900
C17         C  0.77946135  0.15229712  0.29557177     0.19800
C18         C  0.79938341  0.07325881  0.24736382    -0.55000
C19         C  0.77301630  0.09886140  0.26260127     0.09000
C20         C  0.82463782  0.15625328  0.23476420    -0.54500
C21         C  0.80020769  0.18373263  0.25247884     0.09500
H22         H  0.84038586  0.09025547  0.35641490     0.14100
H23         H  0.75921281  0.17415393  0.30909162    -0.00200
H24         H  0.80001880  0.03565201  0.22600939     0.14400
H25         H  0.84043105  0.17228292  0.20292404     0.14200
C26         C  0.68817232  0.05544104  0.27001596     0.85900
C27         C  0.70014396  0.50649191  0.28815282    -0.54300
C28         C  0.72413770  0.48586775  0.25812472     0.08900
C29         C  0.73689731  0.02178420  0.21921440     0.19800
C30         C  0.71556552  0.09427503  0.27347128    -0.55000
C31         C  0.74193581  0.07554535  0.24994384     0.09000
C32         C  0.68451748  0.03965590  0.20663706    -0.54500
C33         C  0.71014760  0.03017415  0.17632702     0.09500
H34         H  0.68914274  0.48562556  0.32353943     0.14100
H35         H  0.75679532  0.00531498  0.19719523    -0.00200
H36         H  0.71465876  0.13021577  0.29822753     0.14400
H37         H  0.66259557  0.04226609  0.18504632     0.14200
In38       In  0.00171447  0.05534317  0.26230416     1.36900
C39         C  0.95083131  0.03217939  0.31223222     0.77000
O40         O  0.00965514  0.13296260  0.30695205    -0.61400
O41         O  0.00477489  0.13222855  0.21512814    -0.52300
C42         C  0.06048791  0.03232965  0.25297280     0.69700
O43         O  0.04634769  0.02439920  0.30043740    -0.47200
C44         C  0.97485656  0.03851038  0.16605271     0.74400
O45         O  0.96878514  0.06615274  0.33381462    -0.59000
O46         O  0.97043949  0.07886592  0.19587262    -0.49100
O47         O  0.96385889  0.99680816  0.28398790    -0.55500
C48         C  0.00855658  0.15912025  0.26014813     0.84600
O49         O  0.04370026  0.04482411  0.21145061    -0.57400
O50         O  0.99027236  0.00254452  0.18907075    -0.60700
C51         C  0.18748553  0.08863591  0.26371355     0.85900
C52         C  0.19855923  0.14065014  0.23667050    -0.54300
C53         C  0.22346537  0.16332069  0.26390518     0.08900
C54         C  0.23649105  0.12772589  0.31389257     0.19800
C55         C  0.21506225  0.05320761  0.26011839    -0.55000
C56         C  0.24141893  0.07413889  0.28291398     0.09000
C57         C  0.18421301  0.10363259  0.32688617    -0.54500
C58         C  0.20975402  0.11740266  0.35695589     0.09500
H59         H  0.18510167  0.16274145  0.20625792     0.14100
H60         H  0.25680271  0.14493553  0.33536531    -0.00200
H61         H  0.21378652  0.01683645  0.23620187     0.14400
H62         H  0.16204981  0.10134515  0.34694152     0.14200
C63         C  0.32653259  0.05879664  0.24598715     0.85900
C64         C  0.31521996  0.06326851  0.18446562    -0.54300
C65         C  0.29211899  0.03098964  0.16783754     0.08900
C66         C  0.27638618  0.00580439  0.22249690     0.19800
C67         C  0.29920534  0.08022661  0.27898012    -0.55000
C68         C  0.27201777  0.05350068  0.26601671     0.09000
C69         C  0.32615275  0.50782033  0.25871622    -0.54500
C70         C  0.30099442  0.47797944  0.24803794     0.09500
H71         H  0.32613428  0.09135504  0.15514036     0.14100
H72         H  0.25605569  0.98183225  0.21134578    -0.00200
H73         H  0.30098990  0.11474820  0.30599671     0.14400
H74         H  0.34631046  0.49192263  0.27895893     0.14200
In75       In  0.51177478  0.32134084  0.26313060     1.36900
C76         C  0.45515256  0.28803961  0.27436344     0.77000
O77         O  0.50214599  0.39836627  0.30671169    -0.61400
O78         O  0.50526895  0.39655579  0.21461164    -0.52300
C79         C  0.56616802  0.30519176  0.29862333     0.69700
O80         O  0.54960695  0.26623038  0.28507685    -0.47200
C81         C  0.52674006  0.29912245  0.16000369     0.74400
O82         O  0.47251731  0.29320558  0.31818011    -0.59000
O83         O  0.53377135  0.34230356  0.18317170    -0.49100
O84         O  0.46800261  0.29270743  0.22620684    -0.55500
C85         C  0.50214084  0.42386852  0.25942079     0.84600
O86         O  0.55208623  0.34525548  0.31384427    -0.57400
O87         O  0.51586046  0.26349466  0.19253540    -0.60700
C88         C  0.82495204  0.32969525  0.23879441     0.85900
C89         C  0.81398086  0.33351069  0.17627940    -0.54300
C90         C  0.79050721  0.30088820  0.15999227     0.08900
C91         C  0.77544496  0.27455953  0.21446937     0.19800
C92         C  0.79753007  0.34748486  0.27311842    -0.55000
C93         C  0.77100654  0.32019014  0.26026861     0.09000
C94         C  0.82640285  0.27020678  0.25149293    -0.54500
C95         C  0.80057327  0.24163790  0.24147279     0.09500
H96         H  0.82599569  0.35681159  0.14440248     0.14100
H97         H  0.75524893  0.25036951  0.20313251    -0.00200
H98         H  0.79903520  0.38037338  0.30258872     0.14400
H99         H  0.84658763  0.25120234  0.26737542     0.14200
C100        C  0.68798334  0.35420255  0.25736621     0.85900
C101        C  0.70104083  0.40379600  0.22810894    -0.54300
C102        C  0.72464704  0.42730469  0.25798281     0.08900
C103        C  0.73553123  0.39290339  0.31087249     0.19800
C104        C  0.71474743  0.31719278  0.25835085    -0.55000
C105        C  0.74073475  0.33813209  0.28191607     0.09000
C106        C  0.68277948  0.37116825  0.31935057    -0.54500
C107        C  0.70733675  0.38520386  0.35136533     0.09500
H108        H  0.69032492  0.42311672  0.19184718     0.14100
H109        H  0.75540957  0.40971799  0.33411596    -0.00200
H110        H  0.71371206  0.28087553  0.23435768     0.14400
H111        H  0.65980339  0.37246606  0.33590729     0.14200
In112      In  0.00548446  0.31963989  0.25786747     1.36900
C113        C  0.95260366  0.34906378  0.21805355     0.77000
O114        O  0.01026252  0.24284008  0.21120643    -0.61400
O115        O  0.00795663  0.24306182  0.30383179    -0.52300
C116        C  0.06427830  0.34383618  0.26370307     0.69700
O117        O  0.05071437  0.34357821  0.21482187    -0.47200
C118        C  0.98563522  0.34472479  0.35728889     0.74400
O119        O  0.97312343  0.38305651  0.22840696    -0.59000
O120        O  0.98350193  0.29886674  0.33755492    -0.49100
O121        O  0.96211297  0.30328169  0.21137748    -0.55500
C122        C  0.00954170  0.21646440  0.25813875     0.84600
O123        O  0.04718751  0.33782383  0.30658060    -0.57400
O124        O  0.99641532  0.37988085  0.32410090    -0.60700
C125        C  0.32781138  0.33749526  0.27157334     0.85900
C126        C  0.31829819  0.33590715  0.33466396    -0.54300
C127        C  0.29495960  0.36660865  0.35103305     0.08900
C128        C  0.27786319  0.38696533  0.29575296     0.19800
C129        C  0.30017051  0.31217918  0.24207171    -0.55000
C130        C  0.27321357  0.33673940  0.25532585     0.09000
C131        C  0.32735935  0.39417277  0.25083058    -0.54500
C132        C  0.30165879  0.42065150  0.26212710     0.09500
H133        H  0.33079134  0.31170326  0.36495126     0.14100
H134        H  0.25750460  0.40951134  0.30675470    -0.00200
H135        H  0.30169898  0.27674108  0.21669277     0.14400
H136        H  0.34662461  0.41216775  0.22844515     0.11000
C137        C  0.18945491  0.29444404  0.26191999     0.85900
C138        C  0.20087566  0.24494081  0.29185685    -0.54300
C139        C  0.22493079  0.22218921  0.26408140     0.08900
C140        C  0.23765522  0.25721363  0.21209549     0.19800
C141        C  0.21676024  0.33215008  0.26262327    -0.55000
C142        C  0.24280652  0.31246637  0.24026838     0.09000
C143        C  0.18520219  0.27548857  0.19993937    -0.54500
C144        C  0.21053413  0.26402358  0.16921099     0.09500
H145        H  0.18769999  0.22330165  0.32383545     0.14100
H146        H  0.25776430  0.24030413  0.19107137    -0.00200
H147        H  0.21556766  0.36945746  0.28457529     0.14400
H148        H  0.16290082  0.27593816  0.18012227     0.14200
In149      In  0.49883222  0.32007653  0.00233788     1.36900
C150        C  0.54858812  0.29353140  0.95011328     0.77000
O151        O  0.49388806  0.39692928  0.45646804    -0.61400
O152        O  0.49986892  0.39656976  0.04850907    -0.52300
C153        C  0.43975504  0.29985913  0.01670190     0.69700
O154        O  0.45341034  0.29104827  0.46533537    -0.47200
C155        C  0.52333171  0.29806573  0.09883272     0.74400
O156        O  0.53570029  0.32679470  0.43627127    -0.59000
O157        O  0.53033871  0.33893350  0.07054446    -0.49100
O158        O  0.53478425  0.26055791  0.98186629    -0.55500
C159        C  0.49503786  0.42381931  0.00405753     0.84600
O160        O  0.45749119  0.31644204  0.05515045    -0.57400
O161        O  0.50679212  0.26394472  0.07370616    -0.60700
C162        C  0.81555690  0.30594367  0.00412462     0.85900
C163        C  0.80251690  0.25651650  0.97600275    -0.54300
C164        C  0.77723034  0.23635782  0.00356399     0.08900
C165        C  0.76493910  0.27378501  0.05213110     0.19800
C166        C  0.78950158  0.34497197  0.99742062    -0.55000
C167        C  0.76217076  0.32696624  0.01898376     0.09000
C168        C  0.81752386  0.29122954  0.06800144    -0.54500
C169        C  0.79113087  0.28210595  0.09667744     0.09500
H170        H  0.81429570  0.23498559  0.94282316     0.14100
H171        H  0.74401628  0.25858840  0.07321554    -0.00200
H172        H  0.79181541  0.37937729  0.96997253     0.14400
H173        H  0.83923119  0.29263856  0.09061008     0.14200
C174        C  0.67644078  0.35121424  0.50541873     0.85900
C175        C  0.67918893  0.35636417  0.44010683    -0.54300
C176        C  0.70407572  0.38182503  0.41766266     0.08900
C177        C  0.72567792  0.39997123  0.46724395     0.19800
C178        C  0.70536743  0.31878789  0.00481754    -0.55000
C179        C  0.73185811  0.34921323  0.50455020     0.09000
C180        C  0.68188636  0.40622177  0.53033758    -0.54500
C181        C  0.70635898  0.43315498  0.50870399     0.09500
H182        H  0.66251438  0.33571513  0.41390552     0.14100
H183        H  0.74560919  0.42217474  0.45063587    -0.00200
H184        H  0.70324373  0.28236947  0.02873220     0.14400
H185        H  0.65869946  0.41406899  0.02052123     0.14200
In186      In  0.99463476  0.34573071  0.52511531     1.36900
C187        C  0.04896177  0.36307954  0.03828435     0.77000
O188        O  0.99590657  0.25256864  0.06646988    -0.61400
O189        O  0.00822345  0.27082687  0.48187406    -0.52300
C190        C  0.93763447  0.35356330  0.05746807     0.69700
O191        O  0.95439039  0.39031485  0.03846959    -0.47200
C192        C  0.98185250  0.35202585  0.41764986     0.74400
O193        O  0.03174458  0.35400772  0.08145984    -0.59000
O194        O  0.97429227  0.31297380  0.44813726    -0.49100
O195        O  0.03729620  0.38614511  0.49468011    -0.55500
C196        C  0.99762286  0.22886951  0.01852550     0.84600
O197        O  0.95151356  0.33337610  0.57368169    -0.57400
O198        O  0.99226666  0.39185540  0.44373210    -0.60700
C199        C  0.17583674  0.31096493  0.02699162     0.85900
C200        C  0.18689125  0.31285150  0.08913897    -0.54300
C201        C  0.20953950  0.28011214  0.10473461     0.08900
C202        C  0.22472344  0.25732972  0.04914078     0.19800
C203        C  0.20349530  0.33346986  0.99500888    -0.55000
C204        C  0.22994171  0.30649545  0.00729010     0.09000
C205        C  0.17442754  0.25409923  0.00736614    -0.54500
C206        C  0.19941638  0.22553111  0.01808711     0.09500
H207        H  0.17564083  0.33814369  0.11976562     0.14100
H208        H  0.24459713  0.23304807  0.05912853    -0.00200
H209        H  0.20248763  0.36906899  0.96942395     0.14400
H210        H  0.15444888  0.23764279  0.98588123     0.14200
C211        C  0.31470923  0.35097315  0.50925411     0.85900
C212        C  0.30223604  0.39970263  0.53908431    -0.54300
C213        C  0.27757510  0.42112751  0.51122935     0.08900
C214        C  0.26624202  0.38681390  0.45801519     0.19800
C215        C  0.28769986  0.31227756  0.50893228    -0.55000
C216        C  0.26156582  0.33145208  0.48560577     0.09000
C217        C  0.31904607  0.37046964  0.44728068    -0.54500
C218        C  0.29369235  0.38132187  0.41593555     0.09500
H219        H  0.31580660  0.42252202  0.06690852     0.14100
H220        H  0.24626902  0.40332938  0.43592276    -0.00200
H221        H  0.28690747  0.27483701  0.04423279     0.14400
H222        H  0.34148468  0.37085592  0.42799654     0.14200
In223      In  0.49933517  0.07413763  0.51097219     1.36900
C224        C  0.54885238  0.10760903  0.04358486     0.77000
O225        O  0.49158234  0.99415656  0.05173786    -0.61400
O226        O  0.49545821  0.50825107  0.46225291    -0.52300
C227        C  0.43780593  0.09068171  0.99799498     0.69700
O228        O  0.45217892  0.09681047  0.04560068    -0.47200
C229        C  0.51755204  0.09156040  0.40807468     0.74400
O230        O  0.53953724  0.06161653  0.05463771    -0.59000
O231        O  0.52129718  0.04880680  0.43413220    -0.49100
O232        O  0.53199876  0.14039723  0.53763020    -0.55500
C233        C  0.49372654  0.48101664  0.00749229     0.84600
O234        O  0.45704570  0.09031413  0.46420946    -0.57400
O235        O  0.50593867  0.12840347  0.43640099    -0.60700
C236        C  0.81776040  0.11553549  0.50749950     0.85900
C237        C  0.79953844  0.15649499  0.03832308    -0.54300
C238        C  0.78276193  0.18768591  0.50758046     0.08900
C239        C  0.77075243  0.15401742  0.45457886     0.19800
C240        C  0.78411424  0.06878751  0.01347266    -0.55000
C241        C  0.76452380  0.09907767  0.48333976     0.09000
C242        C  0.82295618  0.13360299  0.44543977    -0.54500
C243        C  0.79835493  0.14656155  0.41350395     0.09500
H244        H  0.81092487  0.17762810  0.07291079     0.14100
H245        H  0.75128838  0.17150652  0.43174021    -0.00200
H246        H  0.78437408  0.03427864  0.04081470     0.14400
H247        H  0.84583482  0.13559962  0.42817376     0.14200
C248        C  0.67569072  0.08565605  0.03952593     0.85900
C249        C  0.68851578  0.08719025  0.10093080    -0.54300
C250        C  0.71062366  0.05205163  0.11406662     0.08900
C251        C  0.72291556  0.02626176  0.05761411     0.19800
C252        C  0.70290110  0.10214594  0.00285597    -0.55000
C253        C  0.72826255  0.07245936  0.01250554     0.09000
C254        C  0.67662826  0.51040372  0.98712882    -0.54500
C255        C  0.70233721  0.48566674  0.00351680     0.09500
H256        H  0.67879705  0.11028865  0.13470547     0.14100
H257        H  0.74215300  0.00014612  0.06608126    -0.00200
H258        H  0.70220885  0.13599774  0.97445002     0.14400
H259        H  0.66142015  0.49288940  0.95525613     0.14200
In260      In  0.98566949  0.06926479  0.00344470     1.36900
C261        C  0.04237076  0.03846662  0.99095627     0.77000
O262        O  0.00539672  0.16103001  0.47232981    -0.61400
O263        O  0.99350049  0.14192578  0.05653505    -0.52300
C264        C  0.93112801  0.05532113  0.96667948     0.69700
O265        O  0.95236589  0.02814349  0.47719161    -0.47200
C266        C  0.97023835  0.04199936  0.10523021     0.74400
O267        O  0.02933465  0.05265401  0.45582881    -0.59000
O268        O  0.96382577  0.08616819  0.08427466    -0.49100
O269        O  0.02879052  0.03762932  0.03855355    -0.55500
C270        C  0.99619180  0.17171814  0.01311868     0.84600
O271        O  0.94673512  0.09456064  0.95079076    -0.57400
O272        O  0.98008657  0.00794740  0.07073462    -0.60700
C273        C  0.31047523  0.04785129  0.00691358     0.85900
C274        C  0.30044045  0.50239513  0.97773269    -0.54300
C275        C  0.27659068  0.47742320  0.00556977     0.08900
C276        C  0.26229221  0.01128185  0.06174031     0.19800
C277        C  0.28343015  0.08439076  0.00441099    -0.55000
C278        C  0.25740759  0.06483837  0.03000952     0.09000
C279        C  0.31499272  0.03383472  0.07036160    -0.54500
C280        C  0.28991513  0.02099483  0.10241034     0.09500
H281        H  0.31424913  0.48153067  0.94704231     0.14100
H282        H  0.24222028  0.99504530  0.08491379    -0.00200
H283        H  0.28469928  0.12026728  0.97928053     0.14400
H284        H  0.33753056  0.03621575  0.08914067     0.14200
C285        C  0.17525138  0.08381110  0.50444458     0.85900
C286        C  0.18558797  0.07687865  0.44242129    -0.54300
C287        C  0.20867324  0.10828851  0.42300976     0.08900
C288        C  0.22534790  0.13469254  0.47582703     0.19800
C289        C  0.19962094  0.06080209  0.02915281    -0.55000
C290        C  0.22987076  0.08821491  0.52156347     0.09000
C291        C  0.17574835  0.14179192  0.51910216    -0.54500
C292        C  0.20119308  0.16923480  0.50502841     0.09500
H293        H  0.17378207  0.04848805  0.41502623     0.14100
H294        H  0.24580634  0.15753582  0.46271628    -0.00200
H295        H  0.19787973  0.02554638  0.05535079     0.14400
H296        H  0.15323369  0.15784574  0.03719565     0.14200
C297        C  0.12574054  0.02756162  0.03546122    -0.21800
C298        C  0.14189120  0.06596061  0.50553928    -0.09900
C299        C  0.12284207  0.08998815  0.46351805     0.29000
C300        C  0.09273185  0.07616430  0.45792408    -0.21800
C301        C  0.07586994  0.03884886  0.98888576    -0.09900
C302        C  0.09411691  0.01673276  0.03314048     0.29000
F303        F  0.08123368  0.98596588  0.07484788    -0.20400
H304        H  0.13943186  0.00961971  0.06882222     0.17300
H305        H  0.07943786  0.09613840  0.42525283     0.17300
F306        F  0.13313494  0.12961786  0.42878575    -0.20400
C307        C  0.85510789  0.04371810  0.49986812    -0.21800
C308        C  0.84786574  0.09227849  0.52600947    -0.09900
C309        C  0.86598641  0.11647281  0.04437262     0.29000
C310        C  0.89460650  0.10694645  0.02162166    -0.21800
C311        C  0.89994960  0.06254839  0.98754787    -0.09900
C312        C  0.88399186  0.03521044  0.47659135     0.29000
F313        F  0.88945362  0.99013361  0.44771076    -0.20400
H314        H  0.83740047  0.01515975  0.49005879     0.17300
H315        H  0.91268613  0.13538246  0.02970332     0.17300
F316        F  0.86207346  0.16240578  0.07240031    -0.20400
C317        C  0.62788514  0.10255503  0.98239424    -0.21800
C318        C  0.64559973  0.11529274  0.03125472    -0.09900
C319        C  0.63084167  0.14288893  0.07653768     0.29000
C320        C  0.59903202  0.14306061  0.07993864    -0.21800
C321        C  0.58159994  0.11946689  0.03646943    -0.09900
C322        C  0.59624153  0.10310409  0.98554832     0.29000
F323        F  0.56526946  0.51325396  0.02456027    -0.20400
H324        H  0.61857485  0.50572731  0.99139111     0.17300
H325        H  0.58806510  0.16068768  0.11680314     0.17300
F326        F  0.64657110  0.17194855  0.11583195    -0.20400
C327        C  0.39419103  0.06821915  0.45557284    -0.21800
C328        C  0.40439204  0.09090910  0.99042431    -0.09900
C329        C  0.38507151  0.12157420  0.02366461     0.29000
C330        C  0.35351617  0.11394909  0.01923654    -0.21800
C331        C  0.34084287  0.07219453  0.98586218    -0.09900
C332        C  0.36295286  0.05743667  0.45363831     0.29000
F333        F  0.35195780  0.02774968  0.40949916    -0.20400
H334        H  0.40840465  0.05055842  0.42302362     0.17300
H335        H  0.33920094  0.13561403  0.04839743     0.17300
F336        F  0.39655899  0.15711471  0.06186932    -0.20400
C337        C  0.13226509  0.37290712  0.99478090    -0.21800
C338        C  0.14336665  0.33120650  0.02806964    -0.09900
C339        C  0.12302486  0.30495305  0.06685869     0.29000
C340        C  0.09389740  0.32197836  0.07543629    -0.21800
C341        C  0.08227329  0.36156824  0.04101506    -0.09900
C342        C  0.10140652  0.38650597  0.99943566     0.29000
F343        F  0.09298260  0.42868413  0.45759713    -0.20400
H344        H  0.14678546  0.39295366  0.96368460     0.17300
H345        H  0.07935221  0.30000606  0.10508373     0.17300
F346        F  0.13114741  0.26095846  0.09593612    -0.20400
C347        C  0.89922487  0.29797695  0.00949888    -0.21800
C348        C  0.90625542  0.34586587  0.03643240    -0.09900
C349        C  0.88506223  0.38581972  0.03415537     0.29000
C350        C  0.85614050  0.37589506  0.01036224    -0.21800
C351        C  0.84759952  0.32550038  0.98910037    -0.09900
C352        C  0.87072644  0.28790631  0.98544601     0.29000
F353        F  0.86851682  0.27542503  0.43641473    -0.20400
H354        H  0.91852697  0.29773315  0.48444105     0.17300
H355        H  0.83927916  0.40574390  0.01563977     0.17300
F356        F  0.89141659  0.43278122  0.05912924    -0.20400
C357        C  0.60592325  0.26318709  0.48013964    -0.21800
C358        C  0.58244235  0.29858017  0.94889160    -0.09900
C359        C  0.59537978  0.34625350  0.92997355     0.29000
C360        C  0.62576107  0.35755418  0.93892674    -0.21800
C361        C  0.64399706  0.32832116  0.51554166    -0.09900
C362        C  0.63602591  0.27659522  0.49762861     0.29000
F363        F  0.65808888  0.24099136  0.49019417    -0.20400
H364        H  0.60062665  0.22362931  0.46606517     0.17300
H365        H  0.63430256  0.39480803  0.92234754     0.17300
F366        F  0.57833255  0.38505370  0.90747375    -0.20400
C367        C  0.35525743  0.28459545  0.49023885    -0.21800
C368        C  0.34472032  0.32505444  0.52681621    -0.09900
C369        C  0.36507983  0.34521447  0.56864486     0.29000
C370        C  0.39532263  0.33568190  0.06873253    -0.21800
C371        C  0.40654359  0.30033049  0.02737785    -0.09900
C372        C  0.38609815  0.27261327  0.48704040     0.29000
F373        F  0.39561464  0.23784844  0.44690171    -0.20400
H374        H  0.33998126  0.26639249  0.45910492     0.17300
H375        H  0.41081652  0.35811737  0.09592250     0.17300
F376        F  0.35617169  0.37958142  0.60955651    -0.20400
C377        C  0.10912928  0.31373082  0.31866271    -0.21800
C378        C  0.09752404  0.34388596  0.27248671    -0.09900
C379        C  0.11789181  0.36929178  0.23492018     0.29000
C380        C  0.14896480  0.36014036  0.24031612    -0.21800
C381        C  0.15983835  0.32102454  0.27875478    -0.09900
C382        C  0.13993112  0.30181938  0.32169066     0.29000
F383        F  0.14941871  0.26997911  0.36494529    -0.20400
H384        H  0.09392219  0.29569010  0.35011938     0.17300
H385        H  0.16413615  0.37832646  0.20896125     0.17300
F386        F  0.10780561  0.40091273  0.19177236    -0.20400
C387        C  0.87598246  0.33533477  0.28964694    -0.21800
C388        C  0.85635522  0.35734398  0.24848366    -0.09900
C389        C  0.87021366  0.39091266  0.20607979     0.29000
C390        C  0.90175101  0.38978710  0.19589701    -0.21800
C391        C  0.92003443  0.35758405  0.22982348    -0.09900
C392        C  0.90705473  0.33287671  0.27884819     0.29000
F393        F  0.92415554  0.30367677  0.31508893    -0.20400
H394        H  0.86686471  0.31351831  0.32626859     0.17300
H395        H  0.91174461  0.41344402  0.16160924     0.17300
F396        F  0.85358679  0.42572734  0.17549343    -0.20400
C397        C  0.37144512  0.27924591  0.23351312    -0.21800
C398        C  0.36053914  0.31876868  0.26973882    -0.09900
C399        C  0.38137769  0.34416116  0.30804226     0.29000
C400        C  0.41063308  0.32699043  0.31467528    -0.21800
C401        C  0.42192800  0.28916985  0.27789554    -0.09900
C402        C  0.40247280  0.26643219  0.23552640     0.29000
F403        F  0.41363722  0.23331810  0.19527642    -0.20400
H404        H  0.35661208  0.26049844  0.20208804     0.17300
H405        H  0.42549427  0.34769042  0.34473978     0.17300
F406        F  0.37348719  0.38688177  0.33917202    -0.20400
C407        C  0.60469844  0.35374926  0.24256898    -0.21800
C408        C  0.59773983  0.31074712  0.27864471    -0.09900
C409        C  0.61986680  0.27352035  0.28898078     0.29000
C410        C  0.64933758  0.28201845  0.26749484    -0.21800
C411        C  0.65769761  0.32961404  0.23862034    -0.09900
C412        C  0.63402184  0.36312183  0.22233699     0.29000
F413        F  0.63936106  0.40857487  0.19321982    -0.20400
H414        H  0.58739416  0.38174037  0.23158051     0.17300
H415        H  0.66660884  0.25533209  0.28195020     0.17300
F416        F  0.61375524  0.23161170  0.32381563    -0.20400
C417        C  0.10686290  0.06598807  0.20166072    -0.21800
C418        C  0.09412618  0.03410140  0.24594720    -0.09900
C419        C  0.11382257  0.01019181  0.28522599     0.29000
C420        C  0.14508465  0.02171952  0.28296084    -0.21800
C421        C  0.15709399  0.06159894  0.24571274    -0.09900
C422        C  0.13780270  0.08027523  0.20173844     0.29000
F423        F  0.14808521  0.11345674  0.15984375    -0.20400
H424        H  0.09238794  0.08344978  0.16914385     0.17300
H425        H  0.15945335  0.00439626  0.31574529     0.17300
F426        F  0.10279774  0.97799481  0.32758807    -0.20400
C427        C  0.91388796  0.09832989  0.28418307    -0.21800
C428        C  0.91876007  0.04615682  0.29951436    -0.09900
C429        C  0.89457275  0.00998023  0.29270847     0.29000
C430        C  0.86587398  0.02670966  0.27248947    -0.21800
C431        C  0.86072534  0.07993062  0.25780376    -0.09900
C432        C  0.88593466  0.11517467  0.26444433     0.29000
F433        F  0.88334503  0.16781078  0.25896991    -0.20400
H434        H  0.93209469  0.12728957  0.28791942     0.17300
H435        H  0.84699289  0.99898842  0.27316387     0.17300
F436        F  0.89800087  0.95973591  0.31023903    -0.20400
C437        C  0.60468907  0.04532945  0.26774775    -0.21800
C438        C  0.59811532  0.09239946  0.23922821    -0.09900
C439        C  0.61944728  0.13359681  0.24184972     0.29000
C440        C  0.64849836  0.12495902  0.26525647    -0.21800
C441        C  0.65672221  0.07498925  0.28705639    -0.09900
C442        C  0.63298980  0.03705344  0.29285976     0.29000
F443        F  0.63706904  0.49331701  0.31363135    -0.20400
H444        H  0.58778902  0.01394405  0.26992758     0.17300
H445        H  0.66564215  0.15541392  0.25932568     0.17300
F446        F  0.61304598  0.18058036  0.21761643    -0.20400
C447        C  0.37315888  0.11882695  0.27377901    -0.21800
C448        C  0.35984146  0.07730928  0.24257064    -0.09900
C449        C  0.37832660  0.05036683  0.20203888     0.29000
C450        C  0.40773989  0.06645787  0.19025161    -0.21800
C451        C  0.42156833  0.10596036  0.22262261    -0.09900
C452        C  0.40424320  0.13168390  0.26550932     0.29000
F453        F  0.41764875  0.16764721  0.30083680    -0.20400
H454        H  0.36007975  0.13964185  0.30565720     0.17300
H455        H  0.42062077  0.04415598  0.15921305     0.17300
F456        F  0.36868282  0.52941434  0.16510735    -0.20400
In457      In  0.50981803  0.09051110  0.73440749     1.36900
C458        C  0.45374227  0.12116679  0.71609081     0.77000
O459        O  0.51028503  0.00913989  0.69479189    -0.61400
O460        O  0.50833677  0.52511646  0.80031086    -0.52300
C461        C  0.56487507  0.11536933  0.70487042     0.69700
O462        O  0.54882336  0.14914696  0.72887490    -0.47200
C463        C  0.52064281  0.10050392  0.84244803     0.74400
O464        O  0.46864840  0.09725017  0.67782087    -0.59000
O465        O  0.52996391  0.06208858  0.81395461    -0.49100
O466        O  0.46973125  0.14018888  0.75589257    -0.55500
C467        C  0.50489392  0.49787051  0.75544501     0.84600
O468        O  0.55011041  0.08034442  0.67816300    -0.57400
O469        O  0.50930486  0.13774394  0.81423488    -0.60700
C470        C  0.82559247  0.10827125  0.76321310     0.85900
C471        C  0.82167317  0.10987494  0.82830125    -0.54300
C472        C  0.79605847  0.13118289  0.85039998     0.08900
C473        C  0.77443392  0.14787378  0.80058074     0.19800
C474        C  0.79758480  0.07721358  0.74286090    -0.55000
C475        C  0.77033732  0.09835830  0.76040003     0.09000
C476        C  0.81907286  0.16364909  0.74075683    -0.54500
C477        C  0.79331986  0.18564788  0.76194875     0.09500
H478        H  0.83833723  0.09015114  0.85439219     0.14100
H479        H  0.75346021  0.16570614  0.81692896    -0.00200
H480        H  0.79959700  0.04320852  0.71535165     0.14400
H481        H  0.83339172  0.18523044  0.71063469     0.14200
C482        C  0.68589366  0.05752325  0.75345127     0.85900
C483        C  0.70502740  0.52769815  0.78329604    -0.54300
C484        C  0.72889115  0.50746487  0.75202305     0.08900
C485        C  0.73628217  0.02287103  0.71042128     0.19800
C486        C  0.71313927  0.09606997  0.75938888    -0.55000
C487        C  0.74022021  0.07659098  0.74068146     0.09000
C488        C  0.68423571  0.03944031  0.69064145    -0.54500
C489        C  0.71100820  0.03100376  0.66368159     0.09500
H490        H  0.69405460  0.50559854  0.81783218     0.14100
H491        H  0.75693799  0.00583341  0.69172938    -0.00200
H492        H  0.71128487  0.13235835  0.78310346     0.14400
H493        H  0.66304377  0.04156256  0.66643038     0.14200
In494      In  0.00182218  0.06907572  0.76574698     1.36900
C495        C  0.94944460  0.04807122  0.81160486     0.77000
O496        O  0.00931919  0.14562023  0.81198183    -0.61400
O497        O  0.00665291  0.14541807  0.71952135    -0.52300
C498        C  0.06053716  0.04620915  0.75689005     0.69700
O499        O  0.04639605  0.03728898  0.80427259    -0.47200
C500        C  0.97644145  0.05127484  0.66798929     0.74400
O501        O  0.96658096  0.08378542  0.83211028    -0.59000
O502        O  0.97248719  0.09273886  0.69615267    -0.49100
O503        O  0.96339651  0.01153870  0.78690130    -0.55500
C504        C  0.00946749  0.17185345  0.76512542     0.84600
O505        O  0.04382760  0.06011044  0.71587384    -0.57400
O506        O  0.99102872  0.01529121  0.69291469    -0.60700
C507        C  0.18788393  0.09552653  0.76059599     0.85900
C508        C  0.20049576  0.14555847  0.73157698    -0.54300
C509        C  0.22485679  0.16839560  0.76029849     0.08900
C510        C  0.23616708  0.13403040  0.81297724     0.19800
C511        C  0.21493723  0.05858256  0.76119644    -0.55000
C512        C  0.24108050  0.07937993  0.78492359     0.09000
C513        C  0.18329408  0.11401523  0.82230484    -0.54500
C514        C  0.20839067  0.12632805  0.85403218     0.09500
H515        H  0.18826571  0.16693587  0.69872387     0.14100
H516        H  0.25610857  0.15140376  0.83552336    -0.00200
H517        H  0.21374772  0.02165106  0.73833943     0.14400
H518        H  0.16075309  0.11344532  0.84095209     0.14200
C519        C  0.32624699  0.06443439  0.74975742     0.85900
C520        C  0.31502589  0.06669467  0.68782986    -0.54300
C521        C  0.29225392  0.03318898  0.67205942     0.08900
C522        C  0.27649156  0.00972792  0.72759783     0.19800
C523        C  0.29873815  0.08631144  0.78148762    -0.55000
C524        C  0.27177171  0.05863698  0.76926054     0.09000
C525        C  0.32719229  0.50940096  0.76842549    -0.54500
C526        C  0.30196104  0.48005410  0.75659979     0.09500
H527        H  0.32627215  0.09310028  0.65724938     0.14100
H528        H  0.25626630  0.98518386  0.71724184    -0.00200
H529        H  0.30027020  0.12171193  0.80711212     0.14400
H530        H  0.34700887  0.49301106  0.78939581     0.14200
In531      In  0.51427777  0.33831588  0.76109956     1.36900
C532        C  0.45794013  0.30237948  0.77149002     0.77000
O533        O  0.50688695  0.41524971  0.80534017    -0.61400
O534        O  0.50557892  0.41292450  0.71281025    -0.52300
C535        C  0.56991111  0.32714604  0.79039541     0.69700
O536        O  0.55428180  0.28634571  0.77954056    -0.47200
C537        C  0.52919493  0.31291411  0.66017959     0.74400
O538        O  0.47523017  0.30764352  0.81553800    -0.59000
O539        O  0.53352727  0.35864650  0.67938286    -0.49100
O540        O  0.47064736  0.30971795  0.72356220    -0.55500
C541        C  0.50492627  0.44049660  0.75800351     0.84600
O542        O  0.55491787  0.36573187  0.80696971    -0.57400
O543        O  0.52121840  0.27739218  0.69566972    -0.60700
C544        C  0.82816255  0.31617306  0.75115108     0.85900
C545        C  0.82731305  0.29822473  0.68842366    -0.54300
C546        C  0.79992766  0.28545119  0.66487408     0.08900
C547        C  0.77619442  0.27776559  0.71418592     0.19800
C548        C  0.80164638  0.35376821  0.75922895    -0.55000
C549        C  0.77382588  0.33277862  0.74343488     0.09000
C550        C  0.81749417  0.26757824  0.78475506    -0.54500
C551        C  0.79185273  0.24385537  0.76252886     0.09500
H552        H  0.84840465  0.29505771  0.66465580     0.14100
H553        H  0.75470360  0.25954525  0.69889095    -0.00200
H554        H  0.80468572  0.39184701  0.77927886     0.14400
H555        H  0.83113907  0.24803744  0.81716082     0.14200
C556        C  0.69104614  0.37886668  0.74081449     0.85900
C557        C  0.70380967  0.42992027  0.71632848    -0.54300
C558        C  0.72847423  0.44945716  0.74635204     0.08900
C559        C  0.74082995  0.40984961  0.79335692     0.19800
C560        C  0.71743454  0.34136967  0.73325041    -0.55000
C561        C  0.74426038  0.35833385  0.75753841     0.09000
C562        C  0.68811981  0.39015488  0.80528825    -0.54500
C563        C  0.71403831  0.39869985  0.83623785     0.09500
H564        H  0.69224922  0.45232412  0.68347040     0.14100
H565        H  0.76170203  0.42424027  0.81537090    -0.00200
H566        H  0.71524711  0.30747665  0.70541958     0.14400
H567        H  0.66599333  0.38750423  0.82606678     0.14200
In568      In  0.00652917  0.33178434  0.76118011     1.36900
C569        C  0.95554295  0.35483975  0.71176197     0.77000
O570        O  0.01325316  0.25494737  0.71651073    -0.61400
O571        O  0.00689343  0.25556688  0.80832078    -0.52300
C572        C  0.06552112  0.35356752  0.76941443     0.69700
O573        O  0.05141057  0.36182391  0.72207304    -0.47200
C574        C  0.98275231  0.35313210  0.85884689     0.74400
O575        O  0.97135369  0.39094877  0.73494420    -0.59000
O576        O  0.97756242  0.31089329  0.83249800    -0.49100
O577        O  0.97043636  0.31571802  0.69579961    -0.55500
C578        C  0.01056151  0.22889240  0.76326745     0.84600
O579        O  0.04882752  0.34037982  0.81106698    -0.57400
O580        O  0.99793306  0.38822678  0.83215809    -0.60700
C581        C  0.32882391  0.33841781  0.77068973     0.85900
C582        C  0.31848318  0.33157296  0.83288063    -0.54300
C583        C  0.29532611  0.36156038  0.85131101     0.08900
C584        C  0.27875627  0.38640843  0.79792059     0.19800
C585        C  0.30134420  0.31576520  0.73789883    -0.55000
C586        C  0.27429104  0.33957484  0.75292184     0.09000
C587        C  0.32851553  0.39646852  0.75522669    -0.54500
C588        C  0.30278527  0.42221403  0.76803843     0.09500
H589        H  0.33014141  0.30412154  0.86094820     0.14100
H590        H  0.25845390  0.40828378  0.81072595    -0.00200
H591        H  0.30297518  0.28242765  0.70923729     0.14400
H592        H  0.34782035  0.41576304  0.73426029     0.11000
C593        C  0.19034627  0.29950720  0.75789474     0.85900
C594        C  0.20158966  0.24978171  0.78752070    -0.54300
C595        C  0.22572037  0.22711580  0.75992339     0.08900
C596        C  0.23850458  0.26183722  0.70802290     0.19800
C597        C  0.21778636  0.33688999  0.75854009    -0.55000
C598        C  0.24380717  0.31680372  0.73629911     0.09000
C599        C  0.18608031  0.28108375  0.69572453    -0.54500
C600        C  0.21146585  0.26908434  0.66515897     0.09500
H601        H  0.18827166  0.22816182  0.81925569     0.14100
H602        H  0.25858741  0.24478057  0.68704909    -0.00200
H603        H  0.21664745  0.37431707  0.78021580     0.14400
H604        H  0.16382286  0.28219489  0.67586733     0.14200
In605      In  0.49929534  0.31906047  0.50291166     1.36900
C606        C  0.55102779  0.29140771  0.46062240     0.77000
O607        O  0.49239253  0.39817859  0.95723796    -0.61400
O608        O  0.49545996  0.39540005  0.54874200    -0.52300
C609        C  0.44031451  0.29571941  0.51425228     0.69700
O610        O  0.45268702  0.28800545  0.96920516    -0.47200
C611        C  0.52510597  0.30740891  0.59993680     0.74400
O612        O  0.53188684  0.32923600  0.93022575    -0.59000
O613        O  0.52913481  0.34761654  0.56892869    -0.49100
O614        O  0.53510573  0.25755161  0.48749067    -0.55500
C615        C  0.49347869  0.42262040  0.50349315     0.84600
O616        O  0.45807852  0.30441068  0.55568938    -0.57400
O617        O  0.51041026  0.26914773  0.57815797    -0.60700
C618        C  0.81751483  0.32480915  0.50526429     0.85900
C619        C  0.80901946  0.26975706  0.48219169    -0.54300
C620        C  0.78471463  0.24578643  0.50880066     0.08900
C621        C  0.77008173  0.28010753  0.55582616     0.19800
C622        C  0.78856709  0.35529268  0.49658873    -0.55000
C623        C  0.76306664  0.33163811  0.52061667     0.09000
C624        C  0.81962472  0.31840754  0.57036984    -0.54500
C625        C  0.79628100  0.29414322  0.59909856     0.09500
H626        H  0.82145518  0.24882575  0.44981604     0.14100
H627        H  0.75044121  0.26053563  0.57726658    -0.00200
H628        H  0.78860260  0.39030453  0.47002442     0.14400
H629        H  0.83901020  0.33584256  0.59197237     0.14200
C630        C  0.67834776  0.34307204  0.97417116     0.85900
C631        C  0.68958280  0.34522997  0.91239486    -0.54300
C632        C  0.71312210  0.37859912  0.89957325     0.08900
C633        C  0.72870556  0.39821772  0.95722327     0.19800
C634        C  0.70558393  0.32318263  0.52277840    -0.55000
C635        C  0.73246073  0.34702054  0.99648910     0.09000
C636        C  0.67845956  0.39863274  0.99866526    -0.54500
C637        C  0.70392701  0.42834472  0.98989290     0.09500
H638        H  0.67788891  0.32173369  0.87966514     0.14100
H639        H  0.74943234  0.42243549  0.94948401    -0.00200
H640        H  0.70521830  0.28748306  0.54836215     0.14400
H641        H  0.66682231  0.42459943  0.56101680     0.14200
In642      In  0.99168563  0.33254168  0.02433483     1.36900
C643        C  0.05160461  0.37703519  0.54044246     0.77000
O644        O  0.99569905  0.26645849  0.57068821    -0.61400
O645        O  0.99828006  0.25822715  0.97463575    -0.52300
C646        C  0.93960188  0.37318480  0.55142358     0.69700
O647        O  0.95840299  0.40744084  0.53373142    -0.47200
C648        C  0.97827786  0.35362156  0.91981696     0.74400
O649        O  0.03503381  0.36250970  0.58283958    -0.59000
O650        O  0.96962289  0.31157062  0.94419185    -0.49100
O651        O  0.03575101  0.36348157  0.99030201    -0.55500
C652        C  0.00279725  0.24197770  0.52509894     0.84600
O653        O  0.95159153  0.31570872  0.07941133    -0.57400
O654        O  0.98962430  0.38909708  0.95169221    -0.60700
C655        C  0.17698726  0.31242960  0.52188286     0.85900
C656        C  0.18816976  0.31628934  0.58384008    -0.54300
C657        C  0.21089912  0.28423372  0.60041060     0.08900
C658        C  0.22641817  0.26057693  0.54553669     0.19800
C659        C  0.20439709  0.33445028  0.48891612    -0.55000
C660        C  0.23112814  0.30867255  0.50198109     0.09000
C661        C  0.17595775  0.25473891  0.50454636    -0.54500
C662        C  0.20150635  0.22715876  0.51551433     0.09500
H663        H  0.17692060  0.34228332  0.61377362     0.14100
H664        H  0.24658822  0.23738838  0.55653050    -0.00200
H665        H  0.20291757  0.36897689  0.46173825     0.14400
H666        H  0.15590183  0.23703778  0.48461356     0.14200
C667        C  0.31408206  0.34622919  0.01303283     0.85900
C668        C  0.30309639  0.39874991  0.03636513    -0.54300
C669        C  0.27870186  0.41889535  0.00688749     0.08900
C670        C  0.26623599  0.38111384  0.95809855     0.19800
C671        C  0.28632113  0.30980303  0.01754269    -0.55000
C672        C  0.26064310  0.32837589  0.99160214     0.09000
C673        C  0.31837408  0.35818932  0.94901779    -0.54500
C674        C  0.29342545  0.37039098  0.91712167     0.09500
H675        H  0.31457995  0.42133703  0.57207772     0.14100
H676        H  0.24640671  0.39648026  0.93445250    -0.00200
H677        H  0.28896992  0.27509251  0.53148180     0.14400
H678        H  0.34078425  0.35566062  0.93020876     0.14200
In679      In  0.49684175  0.07078138  0.00345651     1.36900
C680        C  0.55348035  0.10848014  0.54292905     0.77000
O681        O  0.49365510  0.99875341  0.56215372    -0.61400
O682        O  0.49718820  0.50992028  0.96356917    -0.52300
C683        C  0.44081709  0.09725664  0.50795398     0.69700
O684        O  0.45530232  0.09851161  0.55586827    -0.47200
C685        C  0.51654155  0.09492863  0.90305214     0.74400
O686        O  0.54508012  0.06127588  0.54816620    -0.59000
O687        O  0.52144303  0.05121284  0.92644126    -0.49100
O688        O  0.52851869  0.13841636  0.02692520    -0.55500
C689        C  0.49256841  0.47982232  0.50661362     0.84600
O690        O  0.45412972  0.07900532  0.95578232    -0.57400
O691        O  0.50316478  0.12866404  0.93306444    -0.60700
C692        C  0.81155081  0.10591811  0.01210494     0.85900
C693        C  0.80585258  0.16423453  0.53720329    -0.54300
C694        C  0.77616020  0.17820732  0.00718013     0.08900
C695        C  0.76467464  0.14192492  0.95640050     0.19800
C696        C  0.79015936  0.07814516  0.50701422    -0.55000
C697        C  0.75857639  0.08846671  0.98844506     0.09000
C698        C  0.81690568  0.12032290  0.94922223    -0.54500
C699        C  0.79260279  0.13316060  0.91652836     0.09500
H700        H  0.81706822  0.18329562  0.57349980     0.14100
H701        H  0.74511877  0.15741915  0.93200749    -0.00200
H702        H  0.79031089  0.04201160  0.53172404     0.14400
H703        H  0.83999478  0.12247030  0.93338996     0.14200
C704        C  0.68019445  0.09134067  0.52602934     0.85900
C705        C  0.69148673  0.09145661  0.58872701    -0.54300
C706        C  0.71363192  0.05647337  0.60297894     0.08900
C707        C  0.72767812  0.03294471  0.54688828     0.19800
C708        C  0.70813250  0.10964996  0.49249996    -0.55000
C709        C  0.73368682  0.08072287  0.50372790     0.09000
C710        C  0.67834022  0.51236249  0.49029266    -0.54500
C711        C  0.70471177  0.49133432  0.50917035     0.09500
H712        H  0.68005570  0.11270000  0.62218560     0.14100
H713        H  0.74716519  0.00763355  0.55644081    -0.00200
H714        H  0.70767358  0.14416093  0.46508988     0.14400
H715        H  0.66297769  0.48897708  0.46396064     0.14200
In716      In  0.99003302  0.08195771  0.50739340     1.36900
C717        C  0.04575371  0.04688123  0.50072671     0.77000
O718        O  0.99522586  0.14881866  0.96454328    -0.61400
O719        O  0.99305833  0.15540805  0.56118423    -0.52300
C720        C  0.93781083  0.06772541  0.46126519     0.69700
O721        O  0.94619732  0.01559185  0.98048785    -0.47200
C722        C  0.97198615  0.05294990  0.60695926     0.74400
O723        O  0.02557534  0.04779460  0.94734143    -0.59000
O724        O  0.96399092  0.09571765  0.58464842    -0.49100
O725        O  0.03252797  0.05385077  0.54798645    -0.55500
C726        C  0.00129241  0.18460223  0.51983554     0.84600
O727        O  0.95388863  0.10720460  0.44761408    -0.57400
O728        O  0.98403646  0.02002659  0.57385515    -0.60700
C729        C  0.31365279  0.04980897  0.51523995     0.85900
C730        C  0.29993656  0.50414300  0.48340111    -0.54300
C731        C  0.27633933  0.47988208  0.51228910     0.08900
C732        C  0.26475279  0.01051656  0.56443291     0.19800
C733        C  0.28670248  0.08688848  0.51468525    -0.55000
C734        C  0.26028929  0.06589089  0.53685466     0.09000
C735        C  0.31739177  0.03027612  0.57730200    -0.54500
C736        C  0.29172427  0.01751644  0.60759822     0.09500
H737        H  0.31280798  0.48306445  0.45161622     0.14100
H738        H  0.24445120  0.99242120  0.58507068    -0.00200
H739        H  0.28828236  0.12462981  0.49315460     0.14400
H740        H  0.33955629  0.03156483  0.59760475     0.14200
C741        C  0.17214421  0.08347565  0.99730703     0.85900
C742        C  0.18277105  0.08050238  0.93507690    -0.54300
C743        C  0.20632058  0.11254160  0.91877887     0.08900
C744        C  0.22257580  0.13572019  0.97347206     0.19800
C745        C  0.20269974  0.06306972  0.53747287    -0.55000
C746        C  0.22685854  0.08699782  0.01566903     0.09000
C747        C  0.17257965  0.14062326  0.01571938    -0.54500
C748        C  0.19842523  0.16837270  0.00449451     0.09500
H749        H  0.17080032  0.05460373  0.90513649     0.14100
H750        H  0.24296877  0.15961612  0.96248131    -0.00200
H751        H  0.20092282  0.02976972  0.56661053     0.14400
H752        H  0.15660614  0.15987932  0.54038162     0.14200
C753        C  0.12845190  0.03068719  0.54527691    -0.21800
C754        C  0.13877604  0.06456091  0.99718595    -0.09900
C755        C  0.11927099  0.08909922  0.95626822     0.29000
C756        C  0.08922995  0.07381905  0.94991152    -0.21800
C757        C  0.07891050  0.04362588  0.49858342    -0.09900
C758        C  0.09668555  0.02145238  0.54345546     0.29000
F759        F  0.08329008  0.99179982  0.58558037    -0.20400
H760        H  0.14194912  0.01296370  0.57907853     0.17300
H761        H  0.07558664  0.09400556  0.91797288     0.17300
F762        F  0.12902063  0.13030437  0.92330384    -0.20400
C763        C  0.84825286  0.03355994  0.00538209    -0.21800
C764        C  0.84136389  0.08219650  0.03184662    -0.09900
C765        C  0.87220840  0.12761076  0.53724301     0.29000
C766        C  0.90048342  0.11962939  0.51264965    -0.21800
C767        C  0.90628964  0.07476432  0.47984657    -0.09900
C768        C  0.87695929  0.02465819  0.98167750     0.29000
F769        F  0.88140374  0.98153206  0.94877684    -0.20400
H770        H  0.83020883  0.00626504  0.99375511     0.17300
H771        H  0.91813581  0.14911782  0.51959356     0.17300
F772        F  0.86819083  0.17340519  0.56546396    -0.20400
C773        C  0.63045071  0.10345574  0.47208545    -0.21800
C774        C  0.64972776  0.12045597  0.51724924    -0.09900
C775        C  0.63597495  0.15086435  0.56149005     0.29000
C776        C  0.60420390  0.15051758  0.56845195    -0.21800
C777        C  0.58575361  0.12178103  0.53047067    -0.09900
C778        C  0.59898790  0.10174400  0.47980118     0.29000
F779        F  0.56650161  0.51686370  0.51331344    -0.20400
H780        H  0.61930401  0.51244602  0.47633366     0.17300
H781        H  0.59410739  0.17092680  0.60426228     0.17300
F782        F  0.65288016  0.18194553  0.59712793    -0.20400
C783        C  0.39147617  0.05694426  0.94878161    -0.21800
C784        C  0.40734583  0.09734571  0.50136738    -0.09900
C785        C  0.38818215  0.12239694  0.54026291     0.29000
C786        C  0.35672348  0.11393330  0.53644915    -0.21800
C787        C  0.34406628  0.07612878  0.49783342    -0.09900
C788        C  0.36019656  0.04735022  0.94633937     0.29000
F789        F  0.34983529  0.01198183  0.90712088    -0.20400
H790        H  0.40586271  0.03463372  0.92035773     0.17300
H791        H  0.34253785  0.13179186  0.56883025     0.17300
F792        F  0.39978852  0.15315884  0.58309544    -0.20400
C793        C  0.13411736  0.37580152  0.48876123    -0.21800
C794        C  0.14463147  0.33377395  0.52240139    -0.09900
C795        C  0.12425055  0.31033696  0.56306294     0.29000
C796        C  0.09615601  0.33116089  0.57414006    -0.21800
C797        C  0.08498093  0.37133206  0.53971804    -0.09900
C798        C  0.10393744  0.39287213  0.49552115     0.29000
F799        F  0.08996616  0.42222392  0.96196560    -0.20400
H800        H  0.14858190  0.39384755  0.45616242     0.17300
H801        H  0.08184163  0.31172431  0.60616417     0.17300
F802        F  0.13159133  0.26629714  0.59280189    -0.20400
C803        C  0.90129823  0.32614292  0.49384199    -0.21800
C804        C  0.90818972  0.36960754  0.52862817    -0.09900
C805        C  0.88630380  0.40833171  0.53445651     0.29000
C806        C  0.85659533  0.39913850  0.51283744    -0.21800
C807        C  0.84822923  0.35030672  0.48686144    -0.09900
C808        C  0.87239171  0.31762695  0.47110629     0.29000
F809        F  0.86503273  0.23855510  0.96626983    -0.20400
H810        H  0.91588449  0.26732450  0.00791490     0.17300
H811        H  0.83913484  0.42629288  0.52482299     0.17300
F812        F  0.89285325  0.45264331  0.56470958    -0.20400
C813        C  0.60149598  0.26313260  0.97869013    -0.21800
C814        C  0.58355602  0.30177081  0.47650411    -0.09900
C815        C  0.59119503  0.35227060  0.49633782     0.29000
C816        C  0.62013044  0.36458793  0.51662569    -0.21800
C817        C  0.64506463  0.32369352  0.96985272    -0.09900
C818        C  0.63262627  0.27553612  0.98915213     0.29000
F819        F  0.65021748  0.24095406  0.01762954    -0.20400
H820        H  0.59200352  0.22688568  0.99574962     0.17300
H821        H  0.62390061  0.40540689  0.52669981     0.17300
F822        F  0.57063761  0.39122572  0.49523857    -0.20400
C823        C  0.35458075  0.27840091  0.00149605    -0.21800
C824        C  0.34380084  0.32145876  0.03392969    -0.09900
C825        C  0.36434541  0.34635610  0.07218450     0.29000
C826        C  0.39579801  0.33161571  0.56680981    -0.21800
C827        C  0.40695882  0.29819771  0.52335813    -0.09900
C828        C  0.38574242  0.26962463  0.99594857     0.29000
F829        F  0.39547617  0.23332058  0.95774858    -0.20400
H830        H  0.33918677  0.25662672  0.97345983     0.17300
H831        H  0.41132257  0.35040353  0.59708689     0.17300
F832        F  0.35531796  0.38252323  0.11100510    -0.20400
C833        C  0.11131568  0.32215210  0.82143667    -0.21800
C834        C  0.09893205  0.35272079  0.77630262    -0.09900
C835        C  0.11864627  0.37643930  0.73622876     0.29000
C836        C  0.14955750  0.36522484  0.73799151    -0.21800
C837        C  0.16090644  0.32621863  0.77593817    -0.09900
C838        C  0.14194812  0.30859005  0.82128453     0.29000
F839        F  0.15222721  0.27726757  0.86436419    -0.20400
H840        H  0.09678668  0.30525805  0.85474749     0.17300
H841        H  0.16403917  0.38215712  0.70467824     0.17300
F842        F  0.10791192  0.40792434  0.69355740    -0.20400
C843        C  0.88307585  0.30173583  0.77744164    -0.21800
C844        C  0.86079523  0.33715815  0.75957643    -0.09900
C845        C  0.87078596  0.38118629  0.72596445     0.29000
C846        C  0.90127505  0.38667097  0.70790739    -0.21800
C847        C  0.92253862  0.34910882  0.72344696    -0.09900
C848        C  0.91293585  0.30662046  0.75832669     0.29000
F849        F  0.93235104  0.26806143  0.77276662    -0.20400
H850        H  0.87738993  0.26671448  0.80164845     0.17300
H851        H  0.90806713  0.41943022  0.68052097     0.17300
F852        F  0.85036541  0.41544041  0.70460942    -0.20400
C853        C  0.37454018  0.28690351  0.72874286    -0.21800
C854        C  0.36194497  0.32125401  0.76917514    -0.09900
C855        C  0.38164601  0.34451211  0.81125203     0.29000
C856        C  0.41160034  0.33069372  0.81615073    -0.21800
C857        C  0.42461763  0.29890778  0.77485780    -0.09900
C858        C  0.40609847  0.27768745  0.72994181     0.29000
F859        F  0.41862866  0.24942850  0.68669092    -0.20400
H860        H  0.36057603  0.26992065  0.69475832     0.17300
H861        H  0.42548769  0.35000687  0.84886966     0.17300
F862        F  0.37212620  0.38297262  0.84708259    -0.20400
C863        C  0.60744755  0.38304894  0.73947127    -0.21800
C864        C  0.60105981  0.33550393  0.76827891    -0.09900
C865        C  0.62287766  0.29654800  0.76787534     0.29000
C866        C  0.65164553  0.30725718  0.74401720    -0.21800
C867        C  0.65971408  0.35802602  0.72266646    -0.09900
C868        C  0.63602281  0.39416205  0.71629443     0.29000
F869        F  0.64091797  0.44284448  0.69409466    -0.20400
H870        H  0.59026737  0.41270754  0.73591998     0.17300
H871        H  0.66888737  0.27821634  0.75064823     0.17300
F872        F  0.61741411  0.25018246  0.79528129    -0.20400
C873        C  0.10655742  0.07855236  0.70393990    -0.21800
C874        C  0.09408461  0.04680530  0.74864081    -0.09900
C875        C  0.11402197  0.02036818  0.78535813     0.29000
C876        C  0.14544580  0.02944817  0.78033891    -0.21800
C877        C  0.15749417  0.06901916  0.74273248    -0.09900
C878        C  0.13776443  0.08985198  0.70092446     0.29000
F879        F  0.14786762  0.12274645  0.65863600    -0.20400
H880        H  0.09184423  0.09783795  0.67316265     0.17300
H881        H  0.16013686  0.01073118  0.81157503     0.17300
F882        F  0.10323117  0.98785557  0.82762912    -0.20400
C883        C  0.91147759  0.11014683  0.77672256    -0.21800
C884        C  0.91720466  0.05959167  0.79712807    -0.09900
C885        C  0.89371732  0.02180696  0.79323880     0.29000
C886        C  0.86471050  0.03569165  0.77203742    -0.21800
C887        C  0.85825759  0.08786427  0.75440907    -0.09900
C888        C  0.88315353  0.12418697  0.75556425     0.29000
F889        F  0.88050953  0.17520146  0.74063533    -0.20400
H890        H  0.92940881  0.13983247  0.77679752     0.17300
H891        H  0.84636850  0.00701458  0.77527889     0.17300
F892        F  0.89812424  0.97284327  0.81414558    -0.20400
C893        C  0.60128004  0.05691805  0.75094964    -0.21800
C894        C  0.59607499  0.10558726  0.72467618    -0.09900
C895        C  0.61935726  0.14349427  0.72450533     0.29000
C896        C  0.64837348  0.13045660  0.74452075    -0.21800
C897        C  0.65462566  0.07953778  0.76625954    -0.09900
C898        C  0.62981182  0.04400630  0.77197824     0.29000
F899        F  0.64208714  0.51597341  0.81150728    -0.20400
H900        H  0.58312323  0.02777489  0.75395211     0.17300
H901        H  0.66657880  0.15872002  0.73712256     0.17300
F902        F  0.61475445  0.19145413  0.70093185    -0.20400
C903        C  0.37229609  0.12780651  0.77446736    -0.21800
C904        C  0.35945764  0.08403664  0.74612281    -0.09900
C905        C  0.37826956  0.05610999  0.70721667     0.29000
C906        C  0.40694129  0.07398029  0.69251045    -0.21800
C907        C  0.42027652  0.11630874  0.72116375    -0.09900
C908        C  0.40306533  0.14234669  0.76403593     0.29000
F909        F  0.41630687  0.17990949  0.79751591    -0.20400
H910        H  0.35911444  0.14927836  0.80563960     0.17300
H911        H  0.41973356  0.05115278  0.66182292     0.17300
F912        F  0.37122463  0.52414968  0.67789931    -0.20400
In913      In  0.50992561  0.58466381  0.25280354     1.36900
C914        C  0.45297508  0.61549580  0.24346010     0.77000
O915        O  0.50205552  0.50662969  0.20912677    -0.61400
O916        O  0.49995450  0.00100081  0.28926551    -0.52300
C917        C  0.56472676  0.60290940  0.21847127     0.69700
O918        O  0.54895520  0.64106000  0.23429911    -0.47200
C919        C  0.52528413  0.60826452  0.35506865     0.74400
O920        O  0.47043410  0.61393872  0.19951910    -0.59000
O921        O  0.53291260  0.56599832  0.33167369    -0.49100
O922        O  0.46565931  0.60656006  0.29099580    -0.55500
C923        C  0.50127048  0.97182290  0.24554691     0.84600
O924        O  0.54972879  0.56378280  0.20040817    -0.57400
O925        O  0.51414854  0.64314758  0.32278731    -0.60700
C926        C  0.82357662  0.59833768  0.28075626     0.85900
C927        C  0.81147296  0.60121592  0.34197691    -0.54300
C928        C  0.78797938  0.63390892  0.35253311     0.08900
C929        C  0.77366160  0.65175729  0.29354988     0.19800
C930        C  0.79660047  0.57234835  0.24940595    -0.55000
C931        C  0.76973690  0.59955229  0.25575562     0.09000
C932        C  0.82448240  0.65392053  0.25476710    -0.54500
C933        C  0.79918056  0.68280865  0.26207150     0.09500
H934        H  0.82292850  0.57992608  0.37640049     0.14100
H935        H  0.75326706  0.67569565  0.29966991    -0.00200
H936        H  0.79831681  0.53518519  0.22721961     0.14400
H937        H  0.84456777  0.66965852  0.23309658     0.14200
C938        C  0.68682386  0.55522493  0.25991876     0.85900
C939        C  0.70047994  0.00629602  0.29855525    -0.54300
C940        C  0.72459675  0.98533697  0.26981636     0.08900
C941        C  0.73484750  0.52217952  0.20571004     0.19800
C942        C  0.71340201  0.59457772  0.26031452    -0.55000
C943        C  0.73953395  0.57693331  0.23588979     0.09000
C944        C  0.68189731  0.53825854  0.19786295    -0.54500
C945        C  0.70648495  0.52777253  0.16499247     0.09500
H946        H  0.68892166  0.98556324  0.33339166     0.14100
H947        H  0.75506255  0.50789078  0.18257677    -0.00200
H948        H  0.71236121  0.62948589  0.28662280     0.14400
H949        H  0.65886692  0.53230481  0.18225643     0.14200
In950      In  0.99968222  0.55716729  0.27709158     1.36900
C951        C  0.94846129  0.53313470  0.32743082     0.77000
O952        O  0.00706633  0.63446090  0.32291620    -0.61400
O953        O  0.00382037  0.63400243  0.23077182    -0.52300
C954        C  0.05829346  0.53419600  0.26193127     0.69700
O955        O  0.04539696  0.52472802  0.31048971    -0.47200
C956        C  0.97277945  0.54254646  0.18113473     0.74400
O957        O  0.96665593  0.56679527  0.34901539    -0.59000
O958        O  0.96808135  0.58209855  0.21214844    -0.49100
O959        O  0.96116464  0.49926451  0.29643156    -0.55500
C960        C  0.00683441  0.66070291  0.27606005     0.84600
O961        O  0.04045242  0.54843328  0.22288778    -0.57400
O962        O  0.98780074  0.50572012  0.20340522    -0.60700
C963        C  0.18521243  0.58794587  0.26068715     0.85900
C964        C  0.19613963  0.64060362  0.23484727    -0.54300
C965        C  0.22074855  0.66313929  0.26293900     0.08900
C966        C  0.23360832  0.62744831  0.31267184     0.19800
C967        C  0.21312868  0.55319932  0.25697922    -0.55000
C968        C  0.23916988  0.57446692  0.28089096     0.09000
C969        C  0.18150462  0.60161112  0.32406662    -0.54500
C970        C  0.20667298  0.61616585  0.35478077     0.09500
H971        H  0.18308671  0.66297532  0.20409242     0.14100
H972        H  0.25356717  0.64486973  0.33508866    -0.00200
H973        H  0.21240025  0.51741936  0.23194670     0.14400
H974        H  0.15919651  0.59867638  0.34350289     0.14200
C975        C  0.32433666  0.56568518  0.24302783     0.85900
C976        C  0.31275143  0.57033893  0.18133040    -0.54300
C977        C  0.29037943  0.53616021  0.16435746     0.08900
C978        C  0.27543522  0.50936853  0.21897994     0.19800
C979        C  0.29665171  0.58395543  0.27701145    -0.55000
C980        C  0.27011147  0.55581498  0.26350861     0.09000
C981        C  0.32659206  0.00141795  0.26415171    -0.54500
C982        C  0.30114889  0.97295487  0.25256874     0.09500
H983        H  0.32361279  0.59822667  0.15183962     0.14100
H984        H  0.25553740  0.48426298  0.20795138    -0.00200
H985        H  0.29774685  0.61789507  0.30496826     0.14400
H986        H  0.34611716  0.98454445  0.28570411     0.14200
In987      In  0.51022445  0.81152241  0.26116717     1.36900
C988        C  0.45341357  0.77875848  0.27589167     0.77000
O989        O  0.50027101  0.89082460  0.29933799    -0.61400
O990        O  0.50488580  0.88509754  0.20794881    -0.52300
C991        C  0.56467480  0.79888392  0.29895495     0.69700
O992        O  0.54951931  0.75921328  0.28245843    -0.47200
C993        C  0.52428563  0.78487047  0.15900240     0.74400
O994        O  0.47120826  0.78576843  0.31877826    -0.59000
O995        O  0.53356890  0.82730096  0.18123023    -0.49100
O996        O  0.46595202  0.78127493  0.22727871    -0.55500
C997        C  0.50126109  0.91442686  0.25097365     0.84600
O998        O  0.54907852  0.83672564  0.31561578    -0.57400
O999        O  0.51201783  0.75131215  0.19246763    -0.60700
C1000       C  0.82415293  0.82897387  0.25047613     0.85900
C1001       C  0.81375218  0.83418783  0.18797576    -0.54300
C1002       C  0.78993725  0.80311799  0.17026379     0.08900
C1003       C  0.77478466  0.77455647  0.22321114     0.19800
C1004       C  0.79650108  0.84554870  0.28485739    -0.55000
C1005       C  0.77006102  0.81880422  0.27043823     0.09000
C1006       C  0.82581876  0.76931623  0.26090177    -0.54500
C1007       C  0.80015083  0.74073096  0.24918551     0.09500
H1008       H  0.82539248  0.85966202  0.15788974     0.14100
H1009       H  0.75470178  0.75054818  0.21071796    -0.00200
H1010       H  0.79784429  0.87766826  0.31533701     0.14400
H1011       H  0.84588206  0.75067005  0.27778473     0.14200
C1012       C  0.68719397  0.85463248  0.26522845     0.85900
C1013       C  0.70056285  0.90468482  0.23759592    -0.54300
C1014       C  0.72428306  0.92700754  0.26833766     0.08900
C1015       C  0.73468258  0.89178885  0.32063590     0.19800
C1016       C  0.71383055  0.81735289  0.26578004    -0.55000
C1017       C  0.73969742  0.83732357  0.29079869     0.09000
C1018       C  0.68184907  0.87024700  0.32754900    -0.54500
C1019       C  0.70629766  0.88426693  0.36034836     0.09500
H1020       H  0.68988520  0.92505543  0.20194241     0.14100
H1021       H  0.75447277  0.90803794  0.34458712    -0.00200
H1022       H  0.71292512  0.78168046  0.24065074     0.14400
H1023       H  0.65872927  0.87179497  0.34336283     0.14200
In1024     In  0.00433771  0.82077291  0.27261171     1.36900
C1025       C  0.95126355  0.84896686  0.23376115     0.77000
O1026       O  0.01007394  0.74407137  0.22684465    -0.61400
O1027       O  0.00487740  0.74463251  0.31921502    -0.52300
C1028       C  0.06312807  0.84298367  0.27914089     0.69700
O1029       O  0.04901486  0.84871393  0.23119681    -0.47200
C1030       C  0.98479686  0.84980541  0.37039327     0.74400
O1031       O  0.97179708  0.88334049  0.24251041    -0.59000
O1032       O  0.98118395  0.80412186  0.35102410    -0.49100
O1033       O  0.96075983  0.80309258  0.22757349    -0.55500
C1034       C  0.00788296  0.71794310  0.27388226     0.84600
O1035       O  0.04665491  0.83035161  0.32135668    -0.57400
O1036       O  0.99770381  0.88331609  0.33780636    -0.60700
C1037       C  0.32613401  0.83073150  0.27446308     0.85900
C1038       C  0.31622342  0.82855848  0.33727023    -0.54300
C1039       C  0.29354184  0.86059000  0.35372836     0.08900
C1040       C  0.27699637  0.88265101  0.29884911     0.19800
C1041       C  0.29810840  0.80739538  0.24412302    -0.55000
C1042       C  0.27159190  0.83342126  0.25755593     0.09000
C1043       C  0.32666682  0.88790007  0.25481099    -0.54500
C1044       C  0.30125608  0.91545453  0.26600977     0.09500
H1045       H  0.32799288  0.80310789  0.36736903     0.14100
H1046       H  0.25713688  0.90631122  0.31015891    -0.00200
H1047       H  0.29900108  0.77211425  0.21830419     0.14400
H1048       H  0.34628907  0.90531130  0.23304196     0.11000
C1049       C  0.18755808  0.79518550  0.26626367     0.85900
C1050       C  0.19858458  0.74421075  0.29348305    -0.54300
C1051       C  0.22208813  0.72169108  0.26396642     0.08900
C1052       C  0.23451949  0.75728959  0.21252871     0.19800
C1053       C  0.21532650  0.83161098  0.26687126    -0.55000
C1054       C  0.24074978  0.81142427  0.24237158     0.09000
C1055       C  0.18221714  0.77885517  0.20371227    -0.54500
C1056       C  0.20692008  0.76636413  0.17153897     0.09500
H1057       H  0.18549667  0.72195601  0.32509741     0.14100
H1058       H  0.25413516  0.74041256  0.18980277    -0.00200
H1059       H  0.21490006  0.86812341  0.29046024     0.14400
H1060       H  0.15957471  0.78021934  0.18534300     0.14200
In1061     In  0.49450474  0.80685083  0.00222079     1.36900
C1062       C  0.54435728  0.78404448  0.95129013     0.77000
O1063       O  0.48904524  0.88823723  0.46864808    -0.61400
O1064       O  0.49578308  0.88340464  0.04895106    -0.52300
C1065       C  0.43513070  0.78970756  0.01608475     0.69700
O1066       O  0.45085563  0.77963643  0.47622157    -0.47200
C1067       C  0.51975516  0.78399741  0.09803040     0.74400
O1068       O  0.53002529  0.82523646  0.44222571    -0.59000
O1069       O  0.52638543  0.82503419  0.06983734    -0.49100
O1070       O  0.53071468  0.74848218  0.97981806    -0.55500
C1071       C  0.49230988  0.91041670  0.00381822     0.84600
O1072       O  0.45312858  0.80425546  0.05508808    -0.57400
O1073       O  0.50279350  0.75018474  0.07334501    -0.60700
C1074       C  0.80733920  0.82124568  0.00951685     0.85900
C1075       C  0.79455776  0.77054682  0.98320953    -0.54300
C1076       C  0.77075656  0.74829988  0.01380663     0.08900
C1077       C  0.75933904  0.78427286  0.06422430     0.19800
C1078       C  0.78005838  0.85790465  0.00735780    -0.55000
C1079       C  0.75398834  0.83752273  0.03230898     0.09000
C1080       C  0.81203141  0.80638129  0.07256721    -0.54500
C1081       C  0.78716270  0.79398127  0.10471440     0.09500
H1082       H  0.80555779  0.74967646  0.94876426     0.14100
H1083       H  0.73945484  0.76774104  0.08772209    -0.00200
H1084       H  0.78085984  0.89343811  0.98152504     0.14400
H1085       H  0.83476584  0.80695521  0.09102524     0.14200
C1086       C  0.67046777  0.86122778  0.51195368     0.85900
C1087       C  0.67690605  0.85896588  0.44768323    -0.54300
C1088       C  0.70214853  0.88410275  0.42665538     0.08900
C1089       C  0.72123308  0.90815529  0.47770226     0.19800
C1090       C  0.69624757  0.82991642  0.02970083    -0.55000
C1091       C  0.72597879  0.86153239  0.52234713     0.09000
C1092       C  0.67342748  0.91912227  0.52848950    -0.54500
C1093       C  0.69900621  0.94450721  0.51005658     0.09500
H1094       H  0.66223618  0.83466350  0.42103923     0.14100
H1095       H  0.74199048  0.92903481  0.46250458    -0.00200
H1096       H  0.69531520  0.79324487  0.05347887     0.14400
H1097       H  0.65298945  0.92633931  0.06122129     0.14200
In1098     In  0.99013009  0.84603754  0.53750987     1.36900
C1099       C  0.04499720  0.87101335  0.04566104     0.77000
O1100       O  0.99260438  0.76414750  0.08008281    -0.61400
O1101       O  0.99958425  0.77106588  0.49073717    -0.52300
C1102       C  0.93084814  0.86166002  0.05184246     0.69700
O1103       O  0.94939318  0.89902296  0.04213189    -0.47200
C1104       C  0.97968797  0.85750583  0.43019585     0.74400
O1105       O  0.02835782  0.85799326  0.08864702    -0.59000
O1106       O  0.96936261  0.81915721  0.45904590    -0.49100
O1107       O  0.03233134  0.88868317  0.50705587    -0.55500
C1108       C  0.99719539  0.73856948  0.03394295     0.84600
O1109       O  0.94708348  0.82814720  0.58439463    -0.57400
O1110       O  0.99162675  0.89512293  0.45796905    -0.60700
C1111       C  0.17129549  0.80870176  0.02797341     0.85900
C1112       C  0.18200933  0.81094945  0.09018380    -0.54300
C1113       C  0.20484729  0.77896960  0.10634265     0.08900
C1114       C  0.22062668  0.75629749  0.05122521     0.19800
C1115       C  0.19913045  0.83158066  0.99638955    -0.55000
C1116       C  0.22575381  0.80516435  0.00919127     0.09000
C1117       C  0.17038106  0.75156786  0.00891835    -0.54500
C1118       C  0.19584548  0.72383093  0.01944184     0.09500
H1119       H  0.17091152  0.83716141  0.12014315     0.14100
H1120       H  0.24057846  0.73250410  0.06199341    -0.00200
H1121       H  0.19800778  0.86678776  0.97018909     0.14400
H1122       H  0.15059366  0.73453290  0.98736956     0.14200
C1123       C  0.31264659  0.84525895  0.51259180     0.85900
C1124       C  0.30160721  0.89578307  0.54044704    -0.54300
C1125       C  0.27757157  0.91829269  0.51176527     0.08900
C1126       C  0.26519633  0.88370971  0.45990564     0.19800
C1127       C  0.28468703  0.80880397  0.51329628    -0.55000
C1128       C  0.25907812  0.82951480  0.48924745     0.09000
C1129       C  0.31751216  0.86262946  0.45007911    -0.54500
C1130       C  0.29251985  0.87506179  0.41843996     0.09500
H1131       H  0.31072592  0.91691250  0.07614475     0.14100
H1132       H  0.24559624  0.90109796  0.43736431    -0.00200
H1133       H  0.28308928  0.77066338  0.04134378     0.14400
H1134       H  0.33993319  0.86097491  0.43104702     0.14200
In1135     In  0.49595165  0.58371212  0.51174222     1.36900
C1136       C  0.54565118  0.60970778  0.06585262     0.77000
O1137       O  0.49032856  0.50516157  0.05491826    -0.61400
O1138       O  0.49320710  0.99691125  0.46943373    -0.52300
C1139       C  0.43672603  0.60461901  0.00324245     0.69700
O1140       O  0.45046816  0.61388399  0.05089145    -0.47200
C1141       C  0.52100078  0.60780663  0.41585010     0.74400
O1142       O  0.52930625  0.57188033  0.08412860    -0.59000
O1143       O  0.52625073  0.56588115  0.44258945    -0.49100
O1144       O  0.53108975  0.64576690  0.53553924    -0.55500
C1145       C  0.49274711  0.96760308  0.00526184     0.84600
O1146       O  0.45409117  0.59269074  0.46070351    -0.57400
O1147       O  0.50534156  0.64153283  0.44167642    -0.60700
C1148       C  0.80998524  0.62880064  0.50564971     0.85900
C1149       C  0.79548084  0.67040714  0.04721306    -0.54300
C1150       C  0.77166393  0.69522424  0.51227697     0.08900
C1151       C  0.76010410  0.66127244  0.45843300     0.19800
C1152       C  0.78267084  0.58206837  0.02109171    -0.55000
C1153       C  0.75704401  0.60534043  0.48515234     0.09000
C1154       C  0.81302549  0.65112914  0.44441804    -0.54500
C1155       C  0.78697383  0.65801799  0.41409932     0.09500
H1156       H  0.80679667  0.69200077  0.08162845     0.14100
H1157       H  0.73925259  0.67683191  0.43853584    -0.00200
H1158       H  0.78416593  0.54671807  0.04691440     0.14400
H1159       H  0.83504688  0.65278193  0.42316284     0.14200
C1160       C  0.67120412  0.56334725  0.01543798     0.85900
C1161       C  0.67625091  0.55593062  0.07964946    -0.54300
C1162       C  0.70211584  0.53256545  0.09849069     0.08900
C1163       C  0.72256113  0.51936999  0.04519254     0.19800
C1164       C  0.69902651  0.59581473  0.99659350    -0.55000
C1165       C  0.72639310  0.57304776  0.01074314     0.09000
C1166       C  0.67093989  0.02680138  0.02565975    -0.54500
C1167       C  0.69578703  0.99626250  0.03210006     0.09500
H1168       H  0.66042415  0.57463165  0.10825113     0.14100
H1169       H  0.74355452  0.49927529  0.05796034    -0.00200
H1170       H  0.69692241  0.63305704  0.97441714     0.14400
H1171       H  0.64953174  0.01057498  0.00987780     0.14200
In1172     In  0.98605145  0.57929920  0.02065969     1.36900
C1173       C  0.04166076  0.54436956  0.00489271     0.77000
O1174       O  0.00021547  0.66225005  0.48213559    -0.61400
O1175       O  0.99242658  0.65232915  0.07426679    -0.52300
C1176       C  0.93152663  0.57068749  0.98200090     0.69700
O1177       O  0.94589707  0.53568458  0.48919654    -0.47200
C1178       C  0.96947029  0.54824377  0.12034664     0.74400
O1179       O  0.02448717  0.55207339  0.46260627    -0.59000
O1180       O  0.96312730  0.59295983  0.10096932    -0.49100
O1181       O  0.03065930  0.55280260  0.05401405    -0.55500
C1182       C  0.99697353  0.68133795  0.03068764     0.84600
O1183       O  0.94858596  0.60863758  0.96761136    -0.57400
O1184       O  0.98034543  0.51575770  0.08518058    -0.60700
C1185       C  0.31075331  0.55397022  0.00581695     0.85900
C1186       C  0.29805350  0.99639055  0.98190594    -0.54300
C1187       C  0.27400146  0.97471619  0.01199689     0.08900
C1188       C  0.26308352  0.51135068  0.05653332     0.19800
C1189       C  0.28268323  0.58809894  0.00377594    -0.55000
C1190       C  0.25696337  0.56550750  0.02716063     0.09000
C1191       C  0.31490564  0.53734500  0.06861058    -0.54500
C1192       C  0.28983181  0.52231968  0.09933882     0.09500
H1193       H  0.31010033  0.97346966  0.95061726     0.14100
H1194       H  0.24322690  0.49231422  0.07779631    -0.00200
H1195       H  0.28329618  0.62531903  0.98110608     0.14400
H1196       H  0.33698496  0.54110366  0.08825026     0.14200
C1197       C  0.17178708  0.58421731  0.50249717     0.85900
C1198       C  0.18198530  0.57760068  0.44051985    -0.54300
C1199       C  0.20487663  0.60927573  0.42095800     0.08900
C1200       C  0.22150411  0.63615178  0.47355069     0.19800
C1201       C  0.19921955  0.55911398  0.02752458    -0.55000
C1202       C  0.22665061  0.58977950  0.51896506     0.09000
C1203       C  0.17184586  0.64230259  0.51689357    -0.54500
C1204       C  0.19729715  0.67009239  0.50341284     0.09500
H1205       H  0.17060384  0.54837868  0.41353035     0.14100
H1206       H  0.24157152  0.65978712  0.46006640    -0.00200
H1207       H  0.19813851  0.52356820  0.05334632     0.14400
H1208       H  0.15118086  0.65364836  0.03728533     0.14200
C1209       C  0.12558663  0.52601441  0.03849789    -0.21800
C1210       C  0.13851666  0.56521903  0.50392111    -0.09900
C1211       C  0.11892728  0.58747949  0.46146757     0.29000
C1212       C  0.08866870  0.57334250  0.45773890    -0.21800
C1213       C  0.07469424  0.53948797  0.99742023    -0.09900
C1214       C  0.09377660  0.51718611  0.04011162     0.29000
F1215       F  0.08153628  0.48857040  0.08427959    -0.20400
H1216       H  0.13981933  0.50909051  0.07168804     0.17300
H1217       H  0.07489051  0.59230950  0.42506360     0.17300
F1218       F  0.12872602  0.62601916  0.42477805    -0.20400
C1219       C  0.84913026  0.55879756  0.49817276    -0.21800
C1220       C  0.84132175  0.60849980  0.52069490    -0.09900
C1221       C  0.86407439  0.63820770  0.04483729     0.29000
C1222       C  0.89314530  0.62752733  0.02490803    -0.21800
C1223       C  0.89966077  0.57984227  0.99786893    -0.09900
C1224       C  0.87870954  0.54837146  0.48014357     0.29000
F1225       F  0.88476794  0.50167900  0.45523089    -0.20400
H1226       H  0.83186421  0.52946306  0.48855100     0.17300
H1227       H  0.91071620  0.65746639  0.02997745     0.17300
F1228       F  0.85901922  0.68724599  0.06447938    -0.20400
C1229       C  0.61472050  0.54505975  0.00598664    -0.21800
C1230       C  0.63832646  0.58319572  0.01026585    -0.09900
C1231       C  0.63041516  0.63218219  0.03451458     0.29000
C1232       C  0.60045326  0.64187390  0.05314352    -0.21800
C1233       C  0.57821779  0.60168017  0.05220952    -0.09900
C1234       C  0.58587451  0.55342187  0.02776737     0.29000
F1235       F  0.58009489  0.08354505  0.94027927    -0.20400
H1236       H  0.63825852  0.08499818  0.94482768     0.17300
H1237       H  0.59510893  0.67966064  0.07127820     0.17300
F1238       F  0.65259538  0.66728518  0.04867719    -0.20400
C1239       C  0.39105911  0.57285865  0.44913681    -0.21800
C1240       C  0.40339703  0.60565218  0.99359349    -0.09900
C1241       C  0.38348239  0.63145372  0.03055773     0.29000
C1242       C  0.35211802  0.62209535  0.02545955    -0.21800
C1243       C  0.34039571  0.58268213  0.98769267    -0.09900
C1244       C  0.35986573  0.56171058  0.44724403     0.29000
F1245       F  0.34931182  0.52931298  0.40507132    -0.20400
H1246       H  0.40553725  0.55352783  0.41826534     0.17300
H1247       H  0.33738476  0.63983324  0.05705932     0.17300
F1248       F  0.39423780  0.66331445  0.07322216    -0.20400
C1249       C  0.12788682  0.87097257  0.99474550    -0.21800
C1250       C  0.13873449  0.82937914  0.02856226    -0.09900
C1251       C  0.11828026  0.80489866  0.06851001     0.29000
C1252       C  0.08968530  0.82436026  0.07858903    -0.21800
C1253       C  0.07839939  0.86470543  0.04453991    -0.09900
C1254       C  0.09741181  0.88676823  0.00069764     0.29000
F1255       F  0.08799487  0.93049938  0.46767952    -0.20400
H1256       H  0.14233670  0.88953299  0.96244887     0.17300
H1257       H  0.07527921  0.80423650  0.10995428     0.17300
F1258       F  0.12612151  0.76135582  0.09875376    -0.20400
C1259       C  0.89121725  0.81810778  0.99237707    -0.21800
C1260       C  0.89933527  0.85996947  0.02899436    -0.09900
C1261       C  0.87792795  0.89850568  0.03937519     0.29000
C1262       C  0.84784658  0.89127230  0.01960845    -0.21800
C1263       C  0.83831623  0.84456912  0.99068579    -0.09900
C1264       C  0.86148529  0.81086051  0.97240064     0.29000
F1265       F  0.85875008  0.76619368  0.46164731    -0.20400
H1266       H  0.91079260  0.78962556  0.50294246     0.17300
H1267       H  0.83103659  0.91814628  0.03516808     0.17300
F1268       F  0.88533806  0.94061463  0.07257560    -0.20400
C1269       C  0.60279951  0.76870031  0.48044378    -0.21800
C1270       C  0.57657147  0.79860599  0.96489684    -0.09900
C1271       C  0.58252487  0.85042605  0.98230958     0.29000
C1272       C  0.61049632  0.86550767  0.00504802    -0.21800
C1273       C  0.63830766  0.83608886  0.51959149    -0.09900
C1274       C  0.63221558  0.78449501  0.49912587     0.29000
F1275       F  0.65575143  0.75285303  0.48775810    -0.20400
H1276       H  0.59907801  0.72967189  0.46332298     0.17300
H1277       H  0.61303538  0.90685155  0.01366255     0.17300
F1278       F  0.56101394  0.88762053  0.97797324    -0.20400
C1279       C  0.35276044  0.77781374  0.49519864    -0.21800
C1280       C  0.34187899  0.81787447  0.53187738    -0.09900
C1281       C  0.36138754  0.83622738  0.57606841     0.29000
C1282       C  0.39133808  0.82605594  0.07031552    -0.21800
C1283       C  0.40189802  0.79260828  0.02626297    -0.09900
C1284       C  0.38363961  0.76619418  0.49301137     0.29000
F1285       F  0.39386701  0.73392710  0.45098786    -0.20400
H1286       H  0.33796875  0.76060088  0.46260502     0.17300
H1287       H  0.40724358  0.84529804  0.09949776     0.17300
F1288       F  0.35178315  0.86929877  0.61771732    -0.20400
C1289       C  0.10924046  0.81456720  0.33168174    -0.21800
C1290       C  0.09644246  0.84470034  0.28667965    -0.09900
C1291       C  0.11582020  0.87101616  0.24796478     0.29000
C1292       C  0.14696036  0.86182371  0.25009122    -0.21800
C1293       C  0.15870110  0.82208593  0.28661234    -0.09900
C1294       C  0.14008499  0.80286437  0.33158576     0.29000
F1295       F  0.15085703  0.77113843  0.37375527    -0.20400
H1296       H  0.09493196  0.79617030  0.36438485     0.17300
H1297       H  0.16123884  0.88000899  0.21718730     0.17300
F1298       F  0.10460122  0.90287834  0.20613159    -0.20400
C1299       C  0.87423317  0.83522345  0.30403849    -0.21800
C1300       C  0.85511101  0.85720232  0.26208710    -0.09900
C1301       C  0.86931388  0.89149881  0.22078697     0.29000
C1302       C  0.90084769  0.89034748  0.21148518    -0.21800
C1303       C  0.91876427  0.85778912  0.24561036    -0.09900
C1304       C  0.90541609  0.83308675  0.29441260     0.29000
F1305       F  0.92217598  0.80405613  0.33139199    -0.20400
H1306       H  0.86471131  0.81293974  0.34000811     0.17300
H1307       H  0.91104784  0.91386216  0.17722182     0.17300
F1308       F  0.85305929  0.92679943  0.19013959    -0.20400
C1309       C  0.36944133  0.77172559  0.23562255    -0.21800
C1310       C  0.35866600  0.81040838  0.27312190    -0.09900
C1311       C  0.37958665  0.83378040  0.31284604     0.29000
C1312       C  0.40876034  0.81583562  0.31900853    -0.21800
C1313       C  0.42007726  0.77956726  0.28033980    -0.09900
C1314       C  0.40043472  0.75834352  0.23726041     0.29000
F1315       F  0.41147984  0.72678662  0.19539509    -0.20400
H1316       H  0.35459855  0.75441281  0.20322488     0.17300
H1317       H  0.42362996  0.83524842  0.35005375     0.17300
F1318       F  0.37201178  0.87579249  0.34537491    -0.20400
C1319       C  0.60356597  0.85411540  0.25101162    -0.21800
C1320       C  0.59657103  0.80781292  0.28176572    -0.09900
C1321       C  0.61887247  0.77011679  0.28785226     0.29000
C1322       C  0.64857907  0.78135224  0.26906050    -0.21800
C1323       C  0.65681432  0.83106885  0.24494080    -0.09900
C1324       C  0.63295791  0.86536388  0.23178715     0.29000
F1325       F  0.63816387  0.91253587  0.20608481    -0.20400
H1326       H  0.58611792  0.88249462  0.24249931     0.17300
H1327       H  0.66584413  0.75371177  0.28088623     0.17300
F1328       F  0.61257721  0.72443943  0.31609475    -0.20400
C1329       C  0.10292667  0.57101849  0.20796018    -0.21800
C1330       C  0.09168404  0.53584915  0.25064334    -0.09900
C1331       C  0.11269806  0.50736545  0.28298709     0.29000
C1332       C  0.14395269  0.51840414  0.27699462    -0.21800
C1333       C  0.15483382  0.56107874  0.24231700    -0.09900
C1334       C  0.13395471  0.58380077  0.20374391     0.29000
F1335       F  0.14268440  0.62004729  0.16374820    -0.20400
H1336       H  0.08736797  0.59188718  0.18018618     0.17300
H1337       H  0.15943059  0.49829989  0.30564062     0.17300
F1338       F  0.10311116  0.47068017  0.32200331    -0.20400
C1339       C  0.90603419  0.59477969  0.33313618    -0.21800
C1340       C  0.91515409  0.54350910  0.32323484    -0.09900
C1341       C  0.89394963  0.50856903  0.29730000     0.29000
C1342       C  0.86476040  0.52545240  0.27967847    -0.21800
C1343       C  0.85623766  0.57788654  0.28782281    -0.09900
C1344       C  0.87751439  0.61159935  0.31656061     0.29000
F1345       F  0.87046280  0.66146084  0.33099454    -0.20400
H1346       H  0.92151131  0.62326216  0.35236395     0.17300
H1347       H  0.84868577  0.49740131  0.26161858     0.17300
F1348       F  0.90136264  0.45791301  0.29058958    -0.20400
C1349       C  0.60286313  0.55077245  0.26960124    -0.21800
C1350       C  0.59633536  0.59646745  0.23812459    -0.09900
C1351       C  0.61888673  0.63525178  0.23238356     0.29000
C1352       C  0.64829466  0.62596515  0.25311727    -0.21800
C1353       C  0.65613349  0.57689991  0.27818448    -0.09900
C1354       C  0.63205811  0.54104858  0.28986117     0.29000
F1355       F  0.63787518  0.98879577  0.31534207    -0.20400
H1356       H  0.58529176  0.52122858  0.27706775     0.17300
H1357       H  0.66578964  0.65451423  0.24187234     0.17300
F1358       F  0.61323318  0.67995573  0.20248296    -0.20400
C1359       C  0.36938180  0.62158754  0.28644900    -0.21800
C1360       C  0.35694822  0.58842571  0.24365710    -0.09900
C1361       C  0.37694529  0.56951134  0.20041490     0.29000
C1362       C  0.40661016  0.58719767  0.19588093    -0.21800
C1363       C  0.41956970  0.61703219  0.23977572    -0.09900
C1364       C  0.40091895  0.63364112  0.28614294     0.29000
F1365       F  0.41338691  0.65930248  0.33207587    -0.20400
H1366       H  0.35545012  0.63464009  0.32199339     0.17300
H1367       H  0.42061040  0.57094885  0.16202070     0.17300
F1368       F  0.36782454  0.00718742  0.17341016    -0.20400
In1369     In  0.51308363  0.60167265  0.75269229     1.36900
C1370       C  0.45494716  0.62769047  0.74167682     0.77000
O1371       O  0.50393786  0.52377910  0.70854741    -0.61400
O1372       O  0.49479505  0.01661446  0.78134172    -0.52300
C1373       C  0.56807390  0.62326776  0.71786417     0.69700
O1374       O  0.55166329  0.66016672  0.73486768    -0.47200
C1375       C  0.52594780  0.61939706  0.85834636     0.74400
O1376       O  0.47161859  0.61935724  0.69782424    -0.59000
O1377       O  0.53496478  0.57935494  0.83216841    -0.49100
O1378       O  0.46924064  0.63146489  0.78846277    -0.55500
C1379       C  0.50172926  0.98623492  0.74088071     0.84600
O1380       O  0.55350843  0.58380063  0.69969449    -0.57400
O1381       O  0.51466057  0.65548055  0.82787344    -0.60700
C1382       C  0.82769602  0.60820616  0.78711810     0.85900
C1383       C  0.81375743  0.60287980  0.84648949    -0.54300
C1384       C  0.79057945  0.63490991  0.85994947     0.08900
C1385       C  0.77795625  0.66121824  0.80343725     0.19800
C1386       C  0.80123566  0.58765596  0.74928346    -0.55000
C1387       C  0.77442413  0.61507366  0.75766726     0.09000
C1388       C  0.82973218  0.66649466  0.77033317    -0.54500
C1389       C  0.80416498  0.69451708  0.77779635     0.09500
H1390       H  0.82353710  0.57596608  0.87790781     0.14100
H1391       H  0.75795192  0.68537150  0.81201801    -0.00200
H1392       H  0.80319108  0.55393331  0.72122654     0.14400
H1393       H  0.85014644  0.68345582  0.75099447     0.14200
C1394       C  0.69147574  0.57736760  0.75631273     0.85900
C1395       C  0.69691815  0.00908667  0.78514674    -0.54300
C1396       C  0.72237317  0.98799515  0.76086033     0.08900
C1397       C  0.73910862  0.54430775  0.70062651     0.19800
C1398       C  0.71815061  0.61642888  0.75606290    -0.55000
C1399       C  0.74431707  0.59800740  0.73200044     0.09000
C1400       C  0.68617713  0.56146188  0.69448619    -0.54500
C1401       C  0.71038878  0.55026007  0.66125665     0.09500
H1402       H  0.68403431  0.98938595  0.81899824     0.14100
H1403       H  0.75906977  0.53045325  0.67635194    -0.00200
H1404       H  0.71699280  0.65138503  0.78217386     0.14400
H1405       H  0.66304522  0.55373893  0.68044334     0.14200
In1406     In  0.00220320  0.56631200  0.76982394     1.36900
C1407       C  0.95321968  0.54476782  0.82733379     0.77000
O1408       O  0.01292673  0.64424193  0.81047262    -0.61400
O1409       O  0.00239218  0.64195298  0.72022553    -0.52300
C1410       C  0.06063645  0.54362692  0.75452083     0.69700
O1411       O  0.04739806  0.53255444  0.80228966    -0.47200
C1412       C  0.97319691  0.54534085  0.67690119     0.74400
O1413       O  0.97112793  0.58118741  0.84373066    -0.59000
O1414       O  0.96756054  0.58467223  0.70751578    -0.49100
O1415       O  0.96587354  0.50885815  0.79916596    -0.55500
C1416       C  0.00907296  0.66949489  0.76360733     0.84600
O1417       O  0.04323859  0.56023172  0.71581779    -0.57400
O1418       O  0.99047953  0.51135454  0.69859472    -0.60700
C1419       C  0.18733634  0.59454447  0.75813130     0.85900
C1420       C  0.19938525  0.64553360  0.73041471    -0.54300
C1421       C  0.22326577  0.66885482  0.75989073     0.08900
C1422       C  0.23496982  0.63406414  0.81195176     0.19800
C1423       C  0.21486299  0.55865439  0.75829799    -0.55000
C1424       C  0.24068375  0.57991235  0.78287329     0.09000
C1425       C  0.18234148  0.61139355  0.82032723    -0.54500
C1426       C  0.20713421  0.62468097  0.85256514     0.09500
H1427       H  0.18705761  0.66705979  0.69782857     0.14100
H1428       H  0.25468523  0.65178536  0.83490755    -0.00200
H1429       H  0.21415182  0.52191738  0.73501516     0.14400
H1430       H  0.15972979  0.60955086  0.83858114     0.14200
C1431       C  0.32646027  0.56682233  0.75048923     0.85900
C1432       C  0.31597044  0.56978526  0.68797955    -0.54300
C1433       C  0.29305478  0.53677829  0.67084089     0.08900
C1434       C  0.27710636  0.51180888  0.72538006     0.19800
C1435       C  0.29841933  0.58716127  0.78211696    -0.55000
C1436       C  0.27171349  0.55962700  0.76810659     0.09000
C1437       C  0.32653159  0.00750412  0.77009539    -0.54500
C1438       C  0.30120681  0.97826758  0.75921207     0.09500
H1439       H  0.32734636  0.59717440  0.65860827     0.14100
H1440       H  0.25713827  0.48705178  0.71389056    -0.00200
H1441       H  0.29944173  0.62186875  0.80895260     0.14400
H1442       H  0.34618568  0.99143511  0.79192048     0.14200
In1443     In  0.51217545  0.82730656  0.76732697     1.36900
C1444       C  0.45511000  0.79568377  0.78108498     0.77000
O1445       O  0.49965825  0.90769749  0.79881289    -0.61400
O1446       O  0.50962803  0.89844451  0.70930941    -0.52300
C1447       C  0.56618648  0.81369669  0.80593863     0.69700
O1448       O  0.54948111  0.77387109  0.79662801    -0.47200
C1449       C  0.52661195  0.79256338  0.66884244     0.74400
O1450       O  0.47269203  0.80295313  0.82436503    -0.59000
O1451       O  0.53734264  0.83504083  0.68844047    -0.49100
O1452       O  0.46775085  0.79925688  0.73253540    -0.55500
C1453       C  0.50291334  0.92923804  0.74956174     0.84600
O1454       O  0.55216838  0.85499323  0.81712450    -0.57400
O1455       O  0.51272504  0.76249266  0.70389721    -0.60700
C1456       C  0.82459454  0.84141773  0.75368299     0.85900
C1457       C  0.81347137  0.84168331  0.69116619    -0.54300
C1458       C  0.79043804  0.80728822  0.67652178     0.08900
C1459       C  0.77680806  0.78078072  0.73244544     0.19800
C1460       C  0.79659130  0.85749988  0.78758142    -0.55000
C1461       C  0.77092168  0.82719583  0.77631600     0.09000
C1462       C  0.82821667  0.78285373  0.76888237    -0.54500
C1463       C  0.80339305  0.75140729  0.76065674     0.09500
H1464       H  0.82456039  0.86541838  0.65857194     0.14100
H1465       H  0.75743240  0.75409532  0.72271092    -0.00200
H1466       H  0.79707816  0.89148513  0.81553527     0.14400
H1467       H  0.84893826  0.76707339  0.78657130     0.14200
C1468       C  0.68794474  0.85702931  0.76522170     0.85900
C1469       C  0.70196522  0.90430742  0.73346081    -0.54300
C1470       C  0.72434695  0.93002763  0.76448613     0.08900
C1471       C  0.73364073  0.89925732  0.82126733     0.19800
C1472       C  0.71472058  0.82027427  0.77269606    -0.55000
C1473       C  0.74003340  0.84321530  0.79703946     0.09000
C1474       C  0.68074797  0.87866529  0.82461310    -0.54500
C1475       C  0.70428933  0.89368031  0.85890251     0.09500
H1476       H  0.69222378  0.92135147  0.69474187     0.14100
H1477       H  0.75262858  0.91785823  0.84558152    -0.00200
H1478       H  0.71467847  0.78286771  0.75082925     0.14400
H1479       H  0.65730157  0.88128825  0.83850877     0.14200
In1480     In  0.00420231  0.82927473  0.76274101     1.36900
C1481       C  0.95044590  0.86034135  0.72886651     0.77000
O1482       O  0.00791945  0.75305571  0.71397202    -0.61400
O1483       O  0.01063396  0.75315432  0.80663055    -0.52300
C1484       C  0.06280009  0.85421954  0.76903269     0.69700
O1485       O  0.04934130  0.85322455  0.71998866    -0.47200
C1486       C  0.98409698  0.84866512  0.86320874     0.74400
O1487       O  0.97228626  0.89325622  0.73184728    -0.59000
O1488       O  0.98236406  0.80408937  0.84027582    -0.49100
O1489       O  0.95839633  0.81331334  0.72586894    -0.55500
C1490       C  0.00992288  0.72669474  0.76079239     0.84600
O1491       O  0.04557998  0.84955915  0.81198998    -0.57400
O1492       O  0.99516455  0.88581831  0.83309642    -0.60700
C1493       C  0.32625089  0.83595871  0.77884099     0.85900
C1494       C  0.31492039  0.83070048  0.84049439    -0.54300
C1495       C  0.29178097  0.86186389  0.85687562     0.08900
C1496       C  0.27647832  0.88662892  0.80211306     0.19800
C1497       C  0.29883946  0.81398643  0.74503349    -0.55000
C1498       C  0.27192635  0.83928476  0.75796375     0.09000
C1499       C  0.32705393  0.89383217  0.76237196    -0.54500
C1500       C  0.30146572  0.92082809  0.77298415     0.09500
H1501       H  0.32617836  0.80412181  0.87016435     0.14100
H1502       H  0.25637050  0.90977490  0.81313199    -0.00200
H1503       H  0.30032033  0.77988329  0.71747712     0.14400
H1504       H  0.34691037  0.91190330  0.74202070     0.11000
C1505       C  0.18765051  0.80024507  0.76167503     0.85900
C1506       C  0.19873570  0.74915898  0.78885280    -0.54300
C1507       C  0.22300646  0.72752367  0.76051355     0.08900
C1508       C  0.23566790  0.76357968  0.70978287     0.19800
C1509       C  0.21533296  0.83708984  0.76386971    -0.55000
C1510       C  0.24125935  0.81751761  0.74039349     0.09000
C1511       C  0.18325587  0.78439844  0.69885381    -0.54500
C1512       C  0.20839023  0.77225302  0.66772817     0.09500
H1513       H  0.18560714  0.72662722  0.82009024     0.14100
H1514       H  0.25566176  0.74732382  0.68769692    -0.00200
H1515       H  0.21442542  0.87339378  0.78778530     0.14400
H1516       H  0.16082596  0.78569113  0.67947605     0.14200
In1517     In  0.49620995  0.81081064  0.51247055     1.36900
C1518       C  0.54704307  0.79069246  0.46351276     0.77000
O1519       O  0.48971204  0.88452265  0.95721369    -0.61400
O1520       O  0.49604775  0.88724833  0.56013214    -0.52300
C1521       C  0.43726891  0.78906179  0.52374045     0.69700
O1522       O  0.44793704  0.77756549  0.96854063    -0.47200
C1523       C  0.52174494  0.78977001  0.60825876     0.74400
O1524       O  0.52695793  0.81759107  0.92911744    -0.59000
O1525       O  0.52770194  0.83051959  0.57928438    -0.49100
O1526       O  0.53294612  0.75375169  0.48911631    -0.55500
C1527       C  0.49179610  0.91418721  0.51519735     0.84600
O1528       O  0.45448715  0.80310114  0.56428940    -0.57400
O1529       O  0.50495512  0.75508526  0.58468446    -0.60700
C1530       C  0.80990366  0.82417355  0.52005999     0.85900
C1531       C  0.79619722  0.77747743  0.48732150    -0.54300
C1532       C  0.77180839  0.75375438  0.51488929     0.08900
C1533       C  0.76083293  0.78613248  0.56919365     0.19800
C1534       C  0.78333920  0.86278079  0.52121407    -0.55000
C1535       C  0.75653549  0.84178010  0.54231059     0.09000
C1536       C  0.81388435  0.80264225  0.58113536    -0.54500
C1537       C  0.78847098  0.79111076  0.61197210     0.09500
H1538       H  0.80708927  0.75977717  0.45045682     0.14100
H1539       H  0.74056407  0.76833749  0.59024496    -0.00200
H1540       H  0.78488739  0.90011215  0.49877710     0.14400
H1541       H  0.83625474  0.80228516  0.60125774     0.14200
C1542       C  0.66741282  0.85566032  0.00616997     0.85900
C1543       C  0.67394854  0.86061796  0.94225629    -0.54300
C1544       C  0.69897585  0.88875399  0.92479024     0.08900
C1545       C  0.71737471  0.90834162  0.97886343     0.19800
C1546       C  0.69887113  0.83731146  0.53911368    -0.55000
C1547       C  0.72295346  0.85738880  0.01635244     0.09000
C1548       C  0.66954320  0.91092941  0.03129264    -0.54500
C1549       C  0.69452692  0.93950702  0.01629876     0.09500
H1550       H  0.65988021  0.83761402  0.91299371     0.14100
H1551       H  0.73772158  0.93201140  0.96688915    -0.00200
H1552       H  0.69724376  0.80425281  0.56861701     0.14400
H1553       H  0.65763979  0.93915470  0.55614641     0.14200
In1554     In  0.98767713  0.84096544  0.03116872     1.36900
C1555       C  0.04763696  0.87566147  0.55037082     0.77000
O1556       O  0.99623404  0.76718789  0.58247538    -0.61400
O1557       O  0.99893522  0.76579906  0.98846453    -0.52300
C1558       C  0.93421979  0.86801866  0.56459688     0.69700
O1559       O  0.95225871  0.90468823  0.54988878    -0.47200
C1560       C  0.97871319  0.85219200  0.92342078     0.74400
O1561       O  0.03186588  0.85882255  0.59290864    -0.59000
O1562       O  0.97167843  0.81067430  0.95029879    -0.49100
O1563       O  0.03065730  0.87970197  0.99984471    -0.55500
C1564       C  0.99914253  0.74257142  0.53528215     0.84600
O1565       O  0.94290727  0.82032645  0.06963973    -0.57400
O1566       O  0.98663128  0.89163596  0.95310143    -0.60700
C1567       C  0.17355470  0.81318800  0.52299361     0.85900
C1568       C  0.18412038  0.81593629  0.58527270    -0.54300
C1569       C  0.20669501  0.78382749  0.60222870     0.08900
C1570       C  0.22256431  0.76031597  0.54765442     0.19800
C1571       C  0.20162468  0.83561523  0.49170912    -0.55000
C1572       C  0.22808689  0.80880249  0.50518739     0.09000
C1573       C  0.17265780  0.75589267  0.50416535    -0.54500
C1574       C  0.19784403  0.72778585  0.51570559     0.09500
H1575       H  0.17316743  0.84280288  0.61476675     0.14100
H1576       H  0.24231901  0.73635065  0.55921334    -0.00200
H1577       H  0.20077641  0.87065775  0.46516143     0.14400
H1578       H  0.15280103  0.73865803  0.48306596     0.14200
C1579       C  0.30984672  0.84451713  0.01638859     0.85900
C1580       C  0.29804905  0.89471991  0.04405059    -0.54300
C1581       C  0.27385067  0.91630038  0.01472941     0.08900
C1582       C  0.26204870  0.88095036  0.96308948     0.19800
C1583       C  0.28233544  0.80706637  0.01720682    -0.55000
C1584       C  0.25653372  0.82667220  0.99282286     0.09000
C1585       C  0.31456197  0.86187594  0.95401159    -0.54500
C1586       C  0.28965074  0.87354302  0.92206557     0.09500
H1587       H  0.31461129  0.91729705  0.57260139     0.14100
H1588       H  0.24225160  0.89729785  0.94020191    -0.00200
H1589       H  0.28510958  0.77202522  0.53676824     0.14400
H1590       H  0.33709102  0.86158029  0.93547446     0.14200
In1591     In  0.49573534  0.58495374  0.01381612     1.36900
C1592       C  0.54655991  0.61100555  0.56018867     0.77000
O1593       O  0.49041834  0.50445005  0.55406852    -0.61400
O1594       O  0.49545577  0.99390142  0.95925507    -0.52300
C1595       C  0.43713067  0.60419167  0.50204093     0.69700
O1596       O  0.45081077  0.61045426  0.55029234    -0.47200
C1597       C  0.52070122  0.61491582  0.91899378     0.74400
O1598       O  0.53106174  0.57273022  0.57994142    -0.59000
O1599       O  0.52705864  0.57247166  0.94380851    -0.49100
O1600       O  0.53108707  0.64547038  0.04098473    -0.55500
C1601       C  0.49228495  0.97141496  0.51613966     0.84600
O1602       O  0.45361928  0.58943356  0.96336012    -0.57400
O1603       O  0.50373111  0.64571967  0.94614726    -0.60700
C1604       C  0.80899500  0.62207337  0.01928499     0.85900
C1605       C  0.79643747  0.67374009  0.53916187    -0.54300
C1606       C  0.77107412  0.69011088  0.01720342     0.08900
C1607       C  0.76022860  0.65348643  0.96584364     0.19800
C1608       C  0.78408950  0.58766652  0.50583887    -0.55000
C1609       C  0.75636190  0.59892795  0.99638214     0.09000
C1610       C  0.81321556  0.63893894  0.95666128    -0.54500
C1611       C  0.78803997  0.64859075  0.92465775     0.09500
H1612       H  0.80808677  0.69250155  0.57514897     0.14100
H1613       H  0.73989358  0.66799905  0.94312262    -0.00200
H1614       H  0.78650117  0.55061771  0.52812819     0.14400
H1615       H  0.83569114  0.63910224  0.93742517     0.14200
C1616       C  0.67243556  0.56829035  0.51051862     0.85900
C1617       C  0.67833761  0.56816682  0.57512882    -0.54300
C1618       C  0.70486157  0.54842234  0.59552993     0.08900
C1619       C  0.72482891  0.53035413  0.54427243     0.19800
C1620       C  0.69965696  0.59937661  0.48620024    -0.55000
C1621       C  0.72749971  0.57965575  0.50261603     0.09000
C1622       C  0.67657347  0.03274855  0.51004378    -0.54500
C1623       C  0.70133856  0.00250219  0.51876230     0.09500
H1624       H  0.66234396  0.58792794  0.60227070     0.14100
H1625       H  0.74614645  0.51277284  0.55945491    -0.00200
H1626       H  0.69681419  0.63352630  0.45883348     0.14400
H1627       H  0.65550813  0.01559125  0.49392066     0.14200
In1628     In  0.98674985  0.58321016  0.51785123     1.36900
C1629       C  0.04221397  0.54696639  0.50579043     0.77000
O1630       O  0.99831325  0.65760982  0.98268450    -0.61400
O1631       O  0.99312436  0.65542701  0.57313120    -0.52300
C1632       C  0.93343025  0.57728389  0.47263743     0.69700
O1633       O  0.94510243  0.52951762  0.99648554    -0.47200
C1634       C  0.96878804  0.55003696  0.61607386     0.74400
O1635       O  0.02312958  0.54907723  0.96291420    -0.59000
O1636       O  0.96162933  0.59435509  0.59657126    -0.49100
O1637       O  0.03040510  0.55542340  0.55415937    -0.55500
C1638       C  0.99849859  0.68522180  0.53051176     0.84600
O1639       O  0.95138624  0.61462468  0.46048708    -0.57400
O1640       O  0.98029276  0.51829587  0.58086208    -0.60700
C1641       C  0.31105773  0.55548214  0.51041666     0.85900
C1642       C  0.30156460  0.00046770  0.48501924    -0.54300
C1643       C  0.27709518  0.97689905  0.51226679     0.08900
C1644       C  0.26361665  0.51453044  0.56355637     0.19800
C1645       C  0.28329661  0.59040699  0.50902041    -0.55000
C1646       C  0.25757613  0.56865292  0.53338791     0.09000
C1647       C  0.31586248  0.53979392  0.57343718    -0.54500
C1648       C  0.29102147  0.52545102  0.60522369     0.09500
H1649       H  0.31452933  0.97935741  0.45326998     0.14100
H1650       H  0.24377840  0.49634916  0.58577460    -0.00200
H1651       H  0.28402458  0.62738481  0.48591887     0.14400
H1652       H  0.33837535  0.54259697  0.59228832     0.14200
C1653       C  0.17126224  0.58077925  0.99628869     0.85900
C1654       C  0.18168437  0.57892481  0.93386816    -0.54300
C1655       C  0.20474420  0.61205823  0.91762966     0.08900
C1656       C  0.22073916  0.63565196  0.97252251     0.19800
C1657       C  0.19970180  0.56398827  0.53519613    -0.55000
C1658       C  0.22599718  0.58661232  0.01392320     0.09000
C1659       C  0.17075544  0.63766486  0.01534640    -0.54500
C1660       C  0.19603764  0.66683987  0.00439051     0.09500
H1661       H  0.17016761  0.55237500  0.90396395     0.14100
H1662       H  0.24069899  0.66063114  0.96153646    -0.00200
H1663       H  0.19848997  0.53038144  0.56402187     0.14400
H1664       H  0.15257684  0.66007829  0.53806966     0.14200
C1665       C  0.12559162  0.53075220  0.54505086    -0.21800
C1666       C  0.13817775  0.56057344  0.99703840    -0.09900
C1667       C  0.11807907  0.58385534  0.95621120     0.29000
C1668       C  0.08759383  0.57065674  0.95429380    -0.21800
C1669       C  0.07532645  0.54233905  0.50047673    -0.09900
C1670       C  0.09384484  0.52108868  0.54478834     0.29000
F1671       F  0.08111398  0.49267592  0.58860987    -0.20400
H1672       H  0.13948154  0.51424204  0.57903438     0.17300
H1673       H  0.07339739  0.59056561  0.92302443     0.17300
F1674       F  0.12741994  0.62340067  0.92047139    -0.20400
C1675       C  0.84770879  0.55134421  0.01516584    -0.21800
C1676       C  0.84003318  0.60146517  0.03706935    -0.09900
C1677       C  0.86508410  0.64557372  0.52904371     0.29000
C1678       C  0.89428067  0.63537536  0.50978022    -0.21800
C1679       C  0.90125657  0.58735890  0.48400247    -0.09900
C1680       C  0.87701131  0.54094258  0.99511219     0.29000
F1681       F  0.88248411  0.49475815  0.96853223    -0.20400
H1682       H  0.83023142  0.52213301  0.00630134     0.17300
H1683       H  0.91171112  0.66544042  0.51558283     0.17300
F1684       F  0.85970647  0.69412744  0.54975450    -0.20400
C1685       C  0.61574446  0.55014229  0.49534781    -0.21800
C1686       C  0.63937683  0.58748541  0.50377786    -0.09900
C1687       C  0.63100288  0.63610313  0.52857496     0.29000
C1688       C  0.60101874  0.64472800  0.54759696    -0.21800
C1689       C  0.57905730  0.60426026  0.54504791    -0.09900
C1690       C  0.58689272  0.55720699  0.51797036     0.29000
F1691       F  0.58172008  0.07703436  0.43924526    -0.20400
H1692       H  0.63975198  0.08424059  0.43445740     0.17300
H1693       H  0.59550677  0.68165140  0.56756839     0.17300
F1694       F  0.65296346  0.67098735  0.54450973    -0.20400
C1695       C  0.39100079  0.57592242  0.94747443    -0.21800
C1696       C  0.40380108  0.60433182  0.49339422    -0.09900
C1697       C  0.38431117  0.63143966  0.52988439     0.29000
C1698       C  0.35291532  0.62278153  0.52576231    -0.21800
C1699       C  0.34069374  0.58249790  0.48991506    -0.09900
C1700       C  0.35988833  0.56428860  0.94444312     0.29000
F1701       F  0.34958170  0.53364401  0.90056861    -0.20400
H1702       H  0.40567718  0.55811463  0.91582243     0.17300
H1703       H  0.33855266  0.64175065  0.55711616     0.17300
F1704       F  0.39557283  0.66397356  0.57140097    -0.20400
C1705       C  0.12979223  0.87701014  0.49401872    -0.21800
C1706       C  0.14084123  0.83339591  0.52435039    -0.09900
C1707       C  0.12071203  0.80702591  0.56348811     0.29000
C1708       C  0.09243379  0.82627501  0.57638255    -0.21800
C1709       C  0.08094755  0.86874295  0.54606015    -0.09900
C1710       C  0.09947101  0.89296294  0.50277316     0.29000
F1711       F  0.08624541  0.92190254  0.96226718    -0.20400
H1712       H  0.14402689  0.89742120  0.46271365     0.17300
H1713       H  0.07844105  0.80467113  0.60724031     0.17300
F1714       F  0.12880232  0.76220859  0.59105449    -0.20400
C1715       C  0.89416839  0.81939478  0.51140246    -0.21800
C1716       C  0.90232930  0.86407362  0.54362480    -0.09900
C1717       C  0.88093011  0.90358354  0.54941279     0.29000
C1718       C  0.85074540  0.89451827  0.53097370    -0.21800
C1719       C  0.84147187  0.84670425  0.50409798    -0.09900
C1720       C  0.86471934  0.81142831  0.49033592     0.29000
F1721       F  0.85551549  0.76825469  0.93917842    -0.20400
H1722       H  0.90797516  0.78958991  0.98038262     0.17300
H1723       H  0.83398031  0.92278944  0.54335149     0.17300
F1724       F  0.88853651  0.94922902  0.57611182    -0.20400
C1725       C  0.59997729  0.76221247  0.97117657    -0.21800
C1726       C  0.57904689  0.80462775  0.47952323    -0.09900
C1727       C  0.58463761  0.85453690  0.50335475     0.29000
C1728       C  0.61306708  0.86895315  0.52489357    -0.21800
C1729       C  0.63508112  0.83080783  0.00916763    -0.09900
C1730       C  0.62923174  0.77862867  0.99052874     0.29000
F1731       F  0.65270446  0.74586883  0.98356727    -0.20400
H1732       H  0.59609320  0.72191265  0.95817630     0.17300
H1733       H  0.61492623  0.90856553  0.54041883     0.17300
F1734       F  0.56242913  0.89058911  0.50575446    -0.20400
C1735       C  0.34965540  0.77716345  0.99762275    -0.21800
C1736       C  0.33961313  0.81806510  0.03420112    -0.09900
C1737       C  0.36067822  0.83948103  0.07388546     0.29000
C1738       C  0.39197119  0.82198762  0.57611565    -0.21800
C1739       C  0.40385975  0.79034137  0.53175298    -0.09900
C1740       C  0.38054811  0.76689172  0.99109061     0.29000
F1741       F  0.38952156  0.73435743  0.94824367    -0.20400
H1742       H  0.33392353  0.75856980  0.96761235     0.17300
H1743       H  0.40688615  0.83938952  0.60841688     0.17300
F1744       F  0.35255182  0.87531124  0.11385665    -0.20400
C1745       C  0.10749202  0.81974001  0.82142209    -0.21800
C1746       C  0.09607361  0.85287552  0.77769690    -0.09900
C1747       C  0.11659678  0.87933480  0.74135991     0.29000
C1748       C  0.14751860  0.86799868  0.74460368    -0.21800
C1749       C  0.15814349  0.82669102  0.78041938    -0.09900
C1750       C  0.13814804  0.80622798  0.82272247     0.29000
F1751       F  0.14732727  0.77163733  0.86356535    -0.20400
H1752       H  0.09215868  0.80070230  0.85196089     0.17300
H1753       H  0.16264614  0.88670972  0.71347498     0.17300
F1754       F  0.10669595  0.91419273  0.70125310    -0.20400
C1755       C  0.87477521  0.85467130  0.80556850    -0.21800
C1756       C  0.85499221  0.87266224  0.76237804    -0.09900
C1757       C  0.86853577  0.90440950  0.71794591     0.29000
C1758       C  0.90010758  0.90347525  0.70793555    -0.21800
C1759       C  0.91850755  0.87267053  0.74317223    -0.09900
C1760       C  0.90577062  0.85126086  0.79433970     0.29000
F1761       F  0.92278510  0.82350485  0.83199061    -0.20400
H1762       H  0.86579398  0.83488335  0.84367901     0.17300
H1763       H  0.90994779  0.92492522  0.67186542     0.17300
F1764       F  0.85154379  0.93652335  0.68454897    -0.20400
C1765       C  0.37146706  0.78147990  0.73957206    -0.21800
C1766       C  0.35913978  0.81698344  0.77906596    -0.09900
C1767       C  0.37900367  0.83992021  0.82112955     0.29000
C1768       C  0.40890306  0.82540358  0.82629107    -0.21800
C1769       C  0.42171674  0.79305128  0.78524796    -0.09900
C1770       C  0.40291672  0.77131019  0.74109518     0.29000
F1771       F  0.41514458  0.74199084  0.69842808    -0.20400
H1772       H  0.35741843  0.76444291  0.70574951     0.17300
H1773       H  0.42296139  0.84478101  0.85869431     0.17300
F1774       F  0.36993870  0.87945487  0.85585149    -0.20400
C1775       C  0.60562245  0.85857858  0.74781460    -0.21800
C1776       C  0.59790268  0.81710333  0.78561438    -0.09900
C1777       C  0.61915659  0.77817100  0.79563740     0.29000
C1778       C  0.64899813  0.78524572  0.77529834    -0.21800
C1779       C  0.65816453  0.83152979  0.74486110    -0.09900
C1780       C  0.63491058  0.86479569  0.72586991     0.29000
F1781       F  0.64084472  0.90728745  0.69200452    -0.20400
H1782       H  0.58884794  0.88711912  0.73563780     0.17300
H1783       H  0.66578956  0.75825007  0.79098965     0.17300
F1784       F  0.61177491  0.73552738  0.82844417    -0.20400
C1785       C  0.10616489  0.57692608  0.70053283    -0.21800
C1786       C  0.09402878  0.54375309  0.74423797    -0.09900
C1787       C  0.11424874  0.51638287  0.77951670     0.29000
C1788       C  0.14559050  0.52653157  0.77496332    -0.21800
C1789       C  0.15726815  0.56757382  0.73894533    -0.09900
C1790       C  0.13729791  0.58907505  0.69785942     0.29000
F1791       F  0.14699413  0.62370680  0.65694894    -0.20400
H1792       H  0.09122630  0.59691761  0.67074948     0.17300
H1793       H  0.16042434  0.50742075  0.80566427     0.17300
F1794       F  0.10375700  0.48221205  0.82044790    -0.20400
C1795       C  0.90867019  0.59969357  0.84680748    -0.21800
C1796       C  0.91966298  0.55270017  0.82550364    -0.09900
C1797       C  0.90013608  0.52220333  0.78979567     0.29000
C1798       C  0.87071962  0.53935488  0.77439285    -0.21800
C1799       C  0.86021577  0.58750497  0.79495116    -0.09900
C1800       C  0.87978854  0.61644639  0.83291210     0.29000
F1801       F  0.87101628  0.66212817  0.85719507    -0.20400
H1802       H  0.92306408  0.62566274  0.87210000     0.17300
H1803       H  0.85631318  0.51510765  0.74706077     0.17300
F1804       F  0.91019687  0.47690243  0.76788515    -0.20400
C1805       C  0.60718947  0.57286926  0.76867733    -0.21800
C1806       C  0.60006970  0.61789088  0.73649169    -0.09900
C1807       C  0.62266891  0.65625493  0.72792936     0.29000
C1808       C  0.65239428  0.64751107  0.74781152    -0.21800
C1809       C  0.66064114  0.59922254  0.77445455    -0.09900
C1810       C  0.63670995  0.56349604  0.78762109     0.29000
F1811       F  0.63353846  0.99415545  0.79082064    -0.20400
H1812       H  0.58978731  0.54334353  0.77756039     0.17300
H1813       H  0.66982709  0.67538406  0.73438088     0.17300
F1814       F  0.61677929  0.69964538  0.69585083    -0.20400
C1815       C  0.37110119  0.62804497  0.78785569    -0.21800
C1816       C  0.35940667  0.58863405  0.75110095    -0.09900
C1817       C  0.37975858  0.56597250  0.71079016     0.29000
C1818       C  0.40921152  0.58468494  0.70383653    -0.21800
C1819       C  0.42131102  0.62241678  0.74098699    -0.09900
C1820       C  0.40222901  0.64322154  0.78448960     0.29000
F1821       F  0.41381504  0.67697835  0.82448068    -0.20400
H1822       H  0.35675701  0.64518004  0.82046664     0.17300
H1823       H  0.42349841  0.56572895  0.67229781     0.17300
F1824       F  0.36870294  0.01049681  0.68240175    -0.20400
loop_ 
_geom_bond_atom_site_label_1 
_geom_bond_atom_site_label_2 
_geom_bond_distance 
_geom_bond_site_symmetry_2 
_ccdc_geom_bond_type 
In1           O3   2.268   1_545  S
In1          O12   2.220       .  S
In1           O6   2.268       .  S
In1           O8   2.262       .  S
In1           O9   2.145       .  S
In1          O10   2.233       .  S
In1          O13   2.210       .  S
In1         O916   2.254       .  S
C2            O8   1.270       .  A
C2           O10   1.249       .  A
C2          C451   1.479       .  S
O3          C923   1.266       .  A
O4         In913   2.243       .  S
O4           C11   1.258       .  A
C5           O12   1.258       .  A
C5            O6   1.259       .  A
C5          C438   1.481       .  S
C7            O9   1.260       .  A
C7           O13   1.261       .  A
C7          C229   1.414       .  S
C11         O915   1.267       .  A
C11          C85   1.466       .  S
C14          C15   1.505       .  S
C14          C20   1.529       .  S
C14          C18   1.530       .  S
C14         C431   1.549       .  S
C15          H22   1.083       .  S
C15          C16   1.364       .  D
C16          C17   1.565       .  S
C16         C243   1.540       .  S
C17          C21   1.560       .  S
C17          C19   1.584       .  S
C17          H23   1.108       .  S
C18          H24   1.081       .  S
C18          C19   1.391       .  D
C19          C31   1.512       .  S
C20          H25   1.086       .  S
C20          C21   1.361       .  D
C21          C95   1.498       .  S
C26          C32   1.524       .  S
C26          C30   1.550       .  S
C26         C939   1.522       .  S
C26         C441   1.535       .  S
C27         C938   1.528       .  S
C27          H34   1.082       .  S
C27          C28   1.379       .  D
C28         C941   1.586       .  S
C28         C102   1.495       .  S
C29          C33   1.555       .  S
C29          C31   1.558       .  S
C29         C940   1.579   1_545  S
C29          H35   1.105       .  S
C30          H36   1.084       .  S
C30          C31   1.379       .  D
C32          H37   1.090       .  S
C32          C33   1.356       .  D
C33         C250   1.537       .  S
In38         O40   2.257       .  S
In38         O41   2.240       .  S
In38         O49   2.215       .  S
In38         O43   2.306       .  S
In38         O45   2.220   1_455  S
In38         O46   2.150   1_455  S
In38         O47   2.273   1_445  S
In38         O50   2.216   1_455  S
C39          O45   1.266       .  A
C39          O47   1.263   1_545  A
C39         C428   1.494       .  S
O40          C48   1.267       .  A
O41          C48   1.256       .  A
C42          O49   1.253       .  A
C42          O43   1.274       .  A
C42         C418   1.492       .  S
C44          O46   1.259       .  A
C44          O50   1.267       .  A
C44         C266   1.419       .  S
C48         C122   1.463       .  S
C51          C52   1.535       .  S
C51          C57   1.515       .  S
C51          C55   1.532       .  S
C51         C421   1.552       .  S
C52          H59   1.081       .  S
C52          C53   1.383       .  D
C53          C54   1.578       .  S
C53         C139   1.502       .  S
C54          C58   1.560       .  S
C54          C56   1.564       .  S
C54          H60   1.107       .  S
C55          H61   1.082       .  S
C55          C56   1.374       .  D
C56          C68   1.510       .  S
C57          H62   1.082       .  S
C57          C58   1.363       .  D
C58         C287   1.540       .  S
C63          C64   1.507       .  S
C63          C67   1.537       .  S
C63         C981   1.521       .  S
C63         C448   1.536       .  S
C64          H71   1.089       .  S
C64          C65   1.354       .  D
C65          C66   1.568       .  S
C65         C280   1.533       .  S
C66          C68   1.595       .  S
C66         C982   1.550   1_545  S
C66          H72   1.106   1_545  S
C67          H73   1.082       .  S
C67          C68   1.400       .  D
C69         C975   1.522       .  S
C69          H74   1.088       .  S
C69          C70   1.356       .  D
C70         C978   1.545       .  S
C70         C132   1.498       .  S
In75         O77   2.259       .  S
In75         O78   2.240       .  S
In75         O86   2.204       .  S
In75         O80   2.258       .  S
In75         O82   2.253       .  S
In75         O83   2.145       .  S
In75         O84   2.220       .  S
In75         O87   2.211       .  S
C76          O82   1.272       .  A
C76          O84   1.251       .  A
C76         C401   1.469       .  S
O77          C85   1.267       .  A
O78          C85   1.258       .  A
C79          O86   1.258       .  A
C79          O80   1.262       .  A
C79         C408   1.471       .  S
C81          O83   1.260       .  A
C81          O87   1.264       .  A
C81         C155   1.418       .  S
C88          C89   1.522       .  S
C88          C94   1.547       .  S
C88          C92   1.524       .  S
C88         C388   1.558       .  S
C89          H96   1.077       .  S
C89          C90   1.369       .  D
C90          C91   1.564       .  S
C90         C169   1.538       .  S
C91          C95   1.533       .  S
C91          C93   1.590       .  S
C91          H97   1.105       .  S
C92          H98   1.083       .  S
C92          C93   1.382       .  D
C93         C105   1.506       .  S
C94          H99   1.084       .  S
C94          C95   1.360       .  D
C100        C101   1.534       .  S
C100        C106   1.514       .  S
C100        C104   1.526       .  S
C100        C411   1.527       .  S
C101        H108   1.081       .  S
C101        C102   1.377       .  D
C102        C103   1.578       .  S
C103        C107   1.565       .  S
C103        C105   1.572       .  S
C103        H109   1.107       .  S
C104        H110   1.081       .  S
C104        C105   1.368       .  D
C106        H111   1.085       .  S
C106        C107   1.353       .  D
C107        C176   1.537       .  S
In112       O114   2.253       .  S
In112       O115   2.223       .  S
In112       O123   2.196       .  S
In112       O117   2.300       .  S
In112       O119   2.279   1_455  S
In112       O120   2.138   1_455  S
In112       O121   2.224   1_455  S
In112       O124   2.213   1_455  S
C113        O119   1.264       .  A
C113        O121   1.259       .  A
C113        C391   1.483       .  S
O114        C122   1.271       .  A
O115        C122   1.258       .  A
C116        O123   1.251       .  A
C116        O117   1.275       .  A
C116        C378   1.480       .  S
C118        O120   1.259       .  A
C118        O124   1.263       .  A
C118        C192   1.415       .  S
C125        C126   1.514       .  S
C125        C131   1.521       .  S
C125        C129   1.528       .  S
C125        C398   1.530       .  S
C126        H133   1.086       .  S
C126        C127   1.360       .  D
C127        C128   1.571       .  S
C127        C218   1.545       .  S
C128        C132   1.550       .  S
C128        C130   1.597       .  S
C128        H134   1.106       .  S
C129        H135   1.082       .  S
C129        C130   1.390       .  D
C130        C142   1.507       .  S
C131        H136   1.088       .  S
C131        C132   1.357       .  D
C137        C138   1.530       .  S
C137        C143   1.520       .  S
C137        C141   1.527       .  S
C137        C381   1.535       .  S
C138        H145   1.082       .  S
C138        C139   1.379       .  D
C139        C140   1.588       .  S
C140        C144   1.562       .  S
C140        C142   1.567       .  S
C140        H146   1.107       .  S
C141        H147   1.082       .  S
C141        C142   1.365       .  D
C143        H148   1.084       .  S
C143        C144   1.361       .  D
C144        C201   1.541       .  S
In149       O152   2.227       .  S
In149       O160   2.194       .  S
In149       O157   2.146       .  S
In149       O158   2.268   1_554  S
In149       O161   2.208       .  S
In149       O607   2.266   1_554  S
In149       O610   2.309   1_554  S
In149       O612   2.221   1_554  S
C150        O158   1.261       .  A
C150        O612   1.266       .  A
C150        C358   1.497       .  S
O151       In605   2.269       .  S
O151        C615   1.269       .  A
O152        C159   1.256       .  A
C153        O160   1.251       .  A
C153        O610   1.275   1_554  A
C153        C371   1.486       .  S
O154       In605   2.302       .  S
O154        C609   1.275       .  A
C155        O157   1.261       .  A
C155        O161   1.266       .  A
O156       In605   2.229       .  S
O156        C606   1.267       .  A
C159        O607   1.268   1_554  A
C159        C233   1.464       .  S
C162        C163   1.523   1_554  S
C162        C168   1.520       .  S
C162        C166   1.542   1_554  S
C162        C351   1.529   1_554  S
C163        H170   1.083       .  S
C163        C164   1.374   1_556  D
C164        C165   1.578       .  S
C164        C694   1.485       .  S
C165        C169   1.556       .  S
C165        C167   1.561       .  S
C165        H171   1.106       .  S
C166        H172   1.083       .  S
C166        C167   1.375   1_556  D
C167        C635   1.506   1_554  S
C168        H173   1.089       .  S
C168        C169   1.355       .  D
C174        C175   1.515       .  S
C174        C180   1.533       .  S
C174        C634   1.535       .  S
C174        C361   1.553       .  S
C175        H182   1.081       .  S
C175        C176   1.366       .  D
C176        C177   1.553       .  S
C177        C181   1.547       .  S
C177        C179   1.579       .  S
C177        H183   1.105       .  S
C178        C630   1.525   1_554  S
C178        H184   1.081       .  S
C178        C635   1.396   1_554  D
C179        C634   1.389       .  D
C179        C623   1.501       .  S
C180        H641   1.085       .  S
C180        C181   1.362       .  D
C181        C711   1.488       .  S
H185        C636   1.089   1_554  S
In186       O189   2.251   1_655  S
In186       O197   2.225       .  S
In186       O194   2.152       .  S
In186       O195   2.240   1_655  S
In186       O198   2.213       .  S
In186       O644   2.276       .  S
In186       O647   2.274       .  S
In186       O649   2.257   1_655  S
C187        O193   1.270       .  A
C187        O651   1.249   1_554  A
C187        C341   1.472       .  S
O188       In642   2.266       .  S
O188        C196   1.265       .  A
O189        C652   1.256       .  A
C190        O191   1.260       .  A
C190        O653   1.259       .  A
C190        C348   1.475       .  S
O191       In642   2.255       .  S
C192        O194   1.257       .  A
C192        O198   1.261       .  A
O193       In642   2.262   1_455  S
O195        C643   1.251       .  A
C196        O645   1.256   1_554  A
C196        C270   1.464       .  S
O197        C646   1.259       .  A
C199        C200   1.513       .  S
C199        C205   1.522       .  S
C199        C203   1.527   1_554  S
C199        C338   1.532       .  S
C200        H207   1.086       .  S
C200        C201   1.361       .  D
C201        C202   1.566       .  S
C202        C206   1.544       .  S
C202        C204   1.592       .  S
C202        H208   1.106       .  S
C203        H209   1.082       .  S
C203        C204   1.394   1_556  D
C204        C672   1.499   1_554  S
C205        H210   1.088   1_554  S
C205        C206   1.355       .  D
C206        C748   1.493       .  S
C211        C212   1.535       .  S
C211        C217   1.521       .  S
C211        C215   1.532       .  S
C211        C368   1.544       .  S
C212        H675   1.082       .  S
C212        C213   1.383       .  D
C213        C214   1.585       .  S
C213        C731   1.501       .  S
C214        C218   1.561       .  S
C214        C216   1.557       .  S
C214        H220   1.106       .  S
C215        H677   1.082       .  S
C215        C216   1.369       .  D
C216        C660   1.501       .  S
C217        H222   1.085       .  S
C217        C218   1.362       .  D
H219        C668   1.080       .  S
H221        C671   1.082       .  S
In223       O234   2.198       .  S
In223       O231   2.129       .  S
In223       O232   2.285       .  S
In223       O235   2.218       .  S
In223       O681   2.262   1_545  S
In223      O1138   2.206   1_545  S
In223       O684   2.300       .  S
In223       O686   2.220       .  S
C224        O230   1.261       .  A
C224        O688   1.262       .  A
C224        C321   1.479       .  S
O225       In679   2.253   1_565  S
O225       C1145   1.272       .  A
O226      In1135   2.242       .  S
O226        C689   1.256       .  A
C227        O228   1.275   1_556  A
C227        O690   1.252       .  A
C227        C328   1.484       .  S
O228       In679   2.308       .  S
C229        O231   1.256       .  A
C229        O235   1.264       .  A
O230       In679   2.236       .  S
O232        C680   1.267       .  A
C233       O1137   1.268       .  A
C233        O682   1.257   1_554  A
O234        C683   1.253       .  A
C236        C242   1.517       .  S
C236        C693   1.524       .  S
C236        C696   1.532       .  S
C236        C308   1.524       .  S
C237        C692   1.531       .  S
C237        H244   1.082       .  S
C237        C694   1.379       .  D
C238        C239   1.581       .  S
C238        C693   1.371       .  D
C238        C620   1.484       .  S
C239        C243   1.558       .  S
C239        C241   1.567       .  S
C239        H245   1.106       .  S
C240        C692   1.523       .  S
C240        H246   1.081       .  S
C240        C697   1.368   1_554  D
C241        C696   1.371       .  D
C241        C709   1.505       .  S
C242        H247   1.086       .  S
C242        C243   1.355       .  D
C248        C249   1.523       .  S
C248        C252   1.521       .  S
C248       C1166   1.547       .  S
C248        C318   1.551       .  S
C249        H256   1.073       .  S
C249        C250   1.370       .  D
C250        C251   1.563       .  S
C251        C253   1.583       .  S
C251       C1167   1.526   1_545  S
C251        H257   1.105       .  S
C252        H258   1.082   1_554  S
C252        C253   1.380       .  D
C253        C697   1.497   1_554  S
C254       C1160   1.526   1_556  S
C254        H259   1.086       .  S
C254        C255   1.360   1_556  D
C255       C1163   1.560       .  S
C255        C637   1.500   1_554  S
In260       O263   2.247       .  S
In260       O271   2.206   1_554  S
In260       O268   2.148       .  S
In260       O269   2.230   1_655  S
In260       O272   2.208       .  S
In260       O718   2.248   1_554  S
In260       O721   2.258   1_554  S
In260       O723   2.263   1_654  S
C261        O269   1.251   1_556  A
C261        O723   1.272       .  A
C261        C301   1.478       .  S
O262       In716   2.262   1_455  S
O262        C726   1.266       .  A
O263        C270   1.258       .  A
C264        O271   1.257       .  A
C264        O721   1.262       .  A
C264        C311   1.473       .  S
O265       In716   2.246       .  S
O265        C720   1.260       .  A
C266        O268   1.261       .  A
C266        O272   1.264       .  A
O267       In716   2.245   1_455  S
O267        C717   1.272       .  A
C270        O718   1.265   1_554  A
C273        C279   1.517       .  S
C273        C277   1.529       .  S
C273       C1186   1.528   1_544  S
C273        C331   1.543   1_554  S
C274       C1185   1.530   1_556  S
C274        H281   1.083       .  S
C274        C275   1.377   1_556  D
C275       C1188   1.586       .  S
C275        C669   1.498       .  S
C276        C280   1.553       .  S
C276        C278   1.565       .  S
C276       C1187   1.575   1_545  S
C276        H282   1.107   1_545  S
C277        H283   1.082   1_554  S
C277        C278   1.375       .  D
C278        C746   1.507       .  S
C279        H284   1.084       .  S
C279        C280   1.365       .  D
C285        C286   1.513       .  S
C285        C291   1.519       .  S
C285        C745   1.531       .  S
C285        C298   1.532       .  S
C286        H293   1.088       .  S
C286        C287   1.359       .  D
C287        C288   1.569       .  S
C288        C292   1.552       .  S
C288        C290   1.598       .  S
C288        H294   1.106       .  S
C289        C741   1.537   1_554  S
C289        H295   1.083       .  S
C289        C746   1.398       .  D
C290        C745   1.397       .  D
C290        C734   1.508       .  S
C291        H752   1.088       .  S
C291        C292   1.350       .  D
C292        C662   1.498       .  S
H296        C747   1.088       .  S
C297        C302   1.418       .  A
C297        C754   1.405   1_554  A
C297        H304   1.082       .  S
C298        C299   1.425       .  A
C298        C753   1.405       .  A
C299        C300   1.373       .  A
C299        F306   1.358       .  S
C300        C757   1.384       .  A
C300        H305   1.085       .  S
C301        C302   1.420   1_556  A
C301        C756   1.387       .  A
C302        F303   1.357   1_545  S
C307        C308   1.422       .  A
C307        C312   1.404       .  A
C307        H314   1.082       .  S
C308        C765   1.413       .  A
C309        C310   1.394       .  A
C309        C764   1.411       .  A
C309        F316   1.355       .  S
C310        C311   1.405   1_554  A
C310        H315   1.084       .  S
C311        C768   1.394       .  A
C312        C767   1.398       .  A
C312        F313   1.357   1_545  S
C317        C318   1.405   1_556  A
C317        C322   1.398       .  A
C317       H1236   1.083       .  S
C318        C319   1.427       .  A
C319        C320   1.405       .  A
C319        F326   1.355       .  S
C320        C321   1.394       .  A
C320        H325   1.082       .  S
C321        C322   1.409   1_554  A
C322       F1235   1.354       .  S
F323       C1234   1.359       .  S
H324       C1229   1.077   1_556  S
C327        C332   1.400       .  A
C327        C784   1.411       .  A
C327        H334   1.084       .  S
C328        C329   1.399   1_556  A
C328        C783   1.408       .  A
C329        C330   1.405       .  A
C329        F336   1.357       .  S
C330        C331   1.422   1_554  A
C330        H335   1.084       .  S
C331        C788   1.410       .  A
C332        C787   1.408       .  A
C332        F333   1.354       .  S
C337        C338   1.404   1_556  A
C337        C342   1.415       .  A
C337        H344   1.082       .  S
C338        C339   1.424       .  A
C339        C340   1.379       .  A
C339        F346   1.358       .  S
C340        C341   1.387       .  A
C340        H345   1.085       .  S
C341        C342   1.418   1_554  A
C342        F799   1.356       .  S
F343        C798   1.357       .  S
C347        C348   1.402       .  A
C347        C352   1.393   1_554  A
C347        H810   1.084       .  S
C348        C349   1.397       .  A
C349        C350   1.407       .  A
C349        F356   1.356       .  S
C350        C351   1.422   1_554  A
C350        H355   1.082       .  S
C351        C352   1.416       .  A
C352        F809   1.355       .  S
F353        C808   1.352       .  S
H354        C803   1.083       .  S
C357        C362   1.423       .  A
C357        C814   1.409       .  A
C357        H364   1.083       .  S
C358        C359   1.402       .  A
C358        C813   1.420       .  A
C359        C360   1.381       .  A
C359        F366   1.355       .  S
C360        C817   1.414       .  A
C360        H365   1.084       .  S
C361        C362   1.422       .  A
C361        C816   1.415       .  A
C362        F363   1.356       .  S
C367        C368   1.421       .  A
C367        C372   1.402       .  A
C367        H374   1.083       .  S
C368        C369   1.408       .  A
C369        C826   1.406       .  A
C369        F376   1.354       .  S
C370        C371   1.412       .  A
C370        C825   1.401       .  A
C370        H375   1.083       .  S
C371        C828   1.398   1_554  A
C372        C827   1.397       .  A
C372        F373   1.357       .  S
C377        C378   1.411       .  A
C377        C382   1.399       .  A
C377        H384   1.083       .  S
C378        C379   1.397       .  A
C379        C380   1.400       .  A
C379        F386   1.357       .  S
C380        C381   1.421       .  A
C380        H385   1.082       .  S
C381        C382   1.404       .  A
C382        F383   1.354       .  S
C387        C388   1.406       .  A
C387        C392   1.396       .  A
C387        H394   1.083       .  S
C388        C389   1.427       .  A
C389        C390   1.412       .  A
C389        F396   1.357       .  S
C390        C391   1.398       .  A
C390        H395   1.081       .  S
C391        C392   1.408       .  A
C392        F393   1.355       .  S
C397        C398   1.405       .  A
C397        C402   1.414       .  A
C397        H404   1.082       .  S
C398        C399   1.422       .  A
C399        C400   1.379       .  A
C399        F406   1.359       .  S
C400        C401   1.387       .  A
C400        H405   1.085       .  S
C401        C402   1.417       .  A
C402        F403   1.357       .  S
C407        C408   1.403       .  A
C407        C412   1.392       .  A
C407        H414   1.084       .  S
C408        C409   1.394       .  A
C409        C410   1.404       .  A
C409        F416   1.357       .  S
C410        C411   1.425       .  A
C410        H415   1.083       .  S
C411        C412   1.412       .  A
C412        F413   1.354       .  S
C417        C418   1.413       .  A
C417        C422   1.406       .  A
C417        H424   1.084       .  S
C418        C419   1.400       .  A
C419        C420   1.405       .  A
C419        F426   1.358   1_545  S
C420        C421   1.423       .  A
C420        H425   1.084       .  S
C421        C422   1.409       .  A
C422        F423   1.354       .  S
C427        C428   1.396       .  A
C427        C432   1.389       .  A
C427        H434   1.084       .  S
C428        C429   1.406       .  A
C429        C430   1.421       .  A
C429        F436   1.353   1_545  S
C430        C431   1.420       .  A
C430        H435   1.082   1_545  S
C431        C432   1.425       .  A
C432        F433   1.355       .  S
C437        C438   1.401       .  A
C437        C442   1.394       .  A
C437        H444   1.084       .  S
C438        C439   1.398       .  A
C439        C440   1.410       .  A
C439        F446   1.355       .  S
C440        C441   1.422       .  A
C440        H445   1.082       .  S
C441        C442   1.418       .  A
C442       F1355   1.355   1_545  S
F443       C1354   1.355       .  S
C447        C448   1.402       .  A
C447        C452   1.416       .  A
C447        H454   1.082       .  S
C448        C449   1.428       .  A
C449        C450   1.380       .  A
C449       F1368   1.360       .  S
C450        C451   1.388       .  A
C450        H455   1.084       .  S
C451        C452   1.421       .  A
C452        F453   1.356       .  S
F456       C1361   1.354       .  S
In457       O459   2.272       .  S
In457      O1372   2.258       .  S
In457       O468   2.221       .  S
In457       O462   2.261       .  S
In457       O464   2.243       .  S
In457       O465   2.164       .  S
In457       O466   2.252       .  S
In457       O469   2.204       .  S
C458        O464   1.267       .  A
C458        O466   1.250       .  A
C458        C907   1.484       .  S
O459       C1379   1.265   1_545  A
O460      In1369   2.242       .  S
O460        C467   1.256       .  A
C461        O468   1.258       .  A
C461        O462   1.257       .  A
C461        C894   1.475       .  S
C463        O465   1.258       .  A
C463        O469   1.260       .  A
C463        C685   1.415       .  S
C467       O1371   1.265       .  A
C467        C541   1.465       .  S
C470        C471   1.511       .  S
C470        C476   1.535       .  S
C470        C474   1.529       .  S
C470        C887   1.555       .  S
C471        H478   1.079       .  S
C471        C472   1.364       .  D
C472        C473   1.555       .  S
C472        C699   1.533       .  S
C473        C477   1.542       .  S
C473        C475   1.577       .  S
C473        H479   1.106       .  S
C474        H480   1.082       .  S
C474        C475   1.388       .  D
C475        C487   1.500       .  S
C476        H481   1.081       .  S
C476        C477   1.368       .  D
C477        C551   1.488       .  S
C482       C1395   1.520       .  S
C482        C488   1.522       .  S
C482        C486   1.544       .  S
C482        C897   1.529       .  S
C483       C1394   1.540       .  S
C483        H490   1.083       .  S
C483        C484   1.386       .  D
C484       C1397   1.570       .  S
C484        C558   1.486       .  S
C485       C1396   1.578   1_545  S
C485        C489   1.565       .  S
C485        C487   1.547       .  S
C485        H491   1.106       .  S
C486        H492   1.082       .  S
C486        C487   1.373       .  D
C488        H493   1.090       .  S
C488        C489   1.357       .  D
C489        C706   1.543       .  S
In494       O496   2.247       .  S
In494       O497   2.223       .  S
In494       O505   2.198       .  S
In494       O499   2.315       .  S
In494       O501   2.221   1_455  S
In494       O502   2.151   1_455  S
In494       O503   2.273   1_455  S
In494       O506   2.218   1_455  S
C495        O501   1.265       .  A
C495        O503   1.265       .  A
C495        C884   1.494       .  S
O496        C504   1.268       .  A
O497        C504   1.256       .  A
C498        O505   1.252       .  A
C498        O499   1.276       .  A
C498        C874   1.492       .  S
C500        O502   1.259       .  A
C500        O506   1.266       .  A
C500        C722   1.420       .  S
C504        C578   1.456       .  S
C507        C508   1.534       .  S
C507        C513   1.515       .  S
C507        C511   1.535       .  S
C507        C877   1.546       .  S
C508        H515   1.081       .  S
C508        C509   1.382       .  D
C509        C510   1.580       .  S
C509        C595   1.498       .  S
C510        C514   1.558       .  S
C510        C512   1.559       .  S
C510        H516   1.107       .  S
C511        H517   1.082       .  S
C511        C512   1.374       .  D
C512        C524   1.508       .  S
C513        H518   1.084       .  S
C513        C514   1.358       .  D
C514        C743   1.534       .  S
C519        C520   1.511       .  S
C519       C1437   1.524       .  S
C519        C523   1.533       .  S
C519        C904   1.541       .  S
C520        H527   1.087       .  S
C520        C521   1.356       .  D
C521        C522   1.568       .  S
C521        C736   1.540       .  S
C522       C1438   1.546   1_545  S
C522        C524   1.595       .  S
C522        H528   1.106   1_545  S
C523        H529   1.082       .  S
C523        C524   1.400       .  D
C525       C1431   1.521       .  S
C525        H530   1.088       .  S
C525        C526   1.357       .  D
C526       C1434   1.550       .  S
C526        C588   1.499       .  S
In531       O533   2.246       .  S
In531       O534   2.240       .  S
In531       O542   2.184       .  S
In531       O536   2.266       .  S
In531       O538   2.258       .  S
In531       O539   2.125       .  S
In531       O540   2.220       .  S
In531       O543   2.196       .  S
C532        O538   1.275       .  A
C532        O540   1.251       .  A
C532        C857   1.473       .  S
O533        C541   1.268       .  A
O534        C541   1.260       .  A
C535        O542   1.258       .  A
C535        O536   1.263       .  A
C535        C864   1.477       .  S
C537        O539   1.261       .  A
C537        O543   1.263       .  A
C537        C611   1.407       .  S
C544        C545   1.519       .  S
C544        C550   1.526       .  S
C544        C548   1.539       .  S
C544        C844   1.538       .  S
C545        H552   1.085       .  S
C545        C546   1.358       .  D
C546        C547   1.556       .  S
C546        C625   1.540       .  S
C547        C551   1.574       .  S
C547        C549   1.565       .  S
C547        H553   1.105       .  S
C548        H554   1.084       .  S
C548        C549   1.378       .  D
C549        C561   1.506       .  S
C550        H555   1.084       .  S
C550        C551   1.372       .  D
C556        C557   1.516       .  S
C556        C562   1.521       .  S
C556        C560   1.532       .  S
C556        C867   1.529       .  S
C557        H564   1.080       .  S
C557        C558   1.375       .  D
C558        C559   1.581       .  S
C559        C563   1.563       .  S
C559        C561   1.565       .  S
C559        H565   1.108       .  S
C560        H566   1.082       .  S
C560        C561   1.371       .  D
C562        H567   1.089       .  S
C562        C563   1.361       .  D
C563        C632   1.545       .  S
In568       O570   2.243       .  S
In568       O571   2.223       .  S
In568       O579   2.198       .  S
In568       O573   2.293       .  S
In568       O575   2.265   1_455  S
In568       O576   2.143   1_455  S
In568       O577   2.224   1_455  S
In568       O580   2.222   1_455  S
C569        O575   1.264       .  A
C569        O577   1.262       .  A
C569        C847   1.485       .  S
O570        C578   1.268       .  A
O571        C578   1.256       .  A
C572        O579   1.252       .  A
C572        O573   1.274       .  A
C572        C834   1.482       .  S
C574        O576   1.256       .  A
C574        O580   1.266       .  A
C574        C648   1.419       .  S
C581        C582   1.513       .  S
C581        C587   1.522       .  S
C581        C585   1.532       .  S
C581        C854   1.534       .  S
C582        H589   1.087       .  S
C582        C583   1.358       .  D
C583        C584   1.568       .  S
C583        C674   1.537       .  S
C584        C588   1.546       .  S
C584        C586   1.595       .  S
C584        H590   1.105       .  S
C585        H591   1.083       .  S
C585        C586   1.394       .  D
C586        C598   1.504       .  S
C587        H592   1.088       .  S
C587        C588   1.356       .  D
C593        C594   1.529       .  S
C593        C599   1.520       .  S
C593        C597   1.526       .  S
C593        C837   1.537       .  S
C594        H601   1.081       .  S
C594        C595   1.379       .  D
C595        C596   1.583       .  S
C596        C600   1.560       .  S
C596        C598   1.562       .  S
C596        H602   1.107       .  S
C597        H603   1.082       .  S
C597        C598   1.367       .  D
C599        H604   1.083       .  S
C599        C600   1.364       .  D
C600        C657   1.540       .  S
In605       O608   2.229       .  S
In605       O616   2.214       .  S
In605       O613   2.132       .  S
In605       O614   2.277       .  S
In605       O617   2.207       .  S
C606        O614   1.263       .  A
C606        C814   1.499       .  S
O608        C615   1.254       .  A
C609        O616   1.252       .  A
C609        C827   1.489       .  S
C611        O613   1.257       .  A
C611        O617   1.266       .  A
C615        C689   1.463       .  S
C618        C619   1.543       .  S
C618        C624   1.511       .  S
C618        C622   1.520       .  S
C618        C807   1.550       .  S
C619        H626   1.077       .  S
C619        C620   1.368       .  D
C620        C621   1.546       .  S
C621        C625   1.562       .  S
C621        C623   1.577       .  S
C621        H627   1.107       .  S
C622        H628   1.081       .  S
C622        C623   1.382       .  D
C624        H629   1.078       .  S
C624        C625   1.362       .  D
C630        C631   1.509       .  S
C630        C636   1.528       .  S
C630        C817   1.543       .  S
C631        H638   1.089       .  S
C631        C632   1.362       .  D
C632        C633   1.574       .  S
C633        C637   1.547       .  S
C633        C635   1.597       .  S
C633        H639   1.108       .  S
C634        H640   1.083       .  S
C636        C637   1.358       .  D
In642       O645   2.243   1_554  S
In642       O653   2.213       .  S
In642       O650   2.151   1_554  S
In642       O651   2.226   1_654  S
In642       O654   2.208   1_554  S
C643        O649   1.271       .  A
C643        C797   1.482       .  S
O644        C652   1.267   1_655  A
C646        O647   1.260       .  A
C646        C804   1.482       .  S
C648        O650   1.262       .  A
C648        O654   1.263       .  A
C652        C726   1.470       .  S
C655        C656   1.513       .  S
C655        C661   1.527       .  S
C655        C659   1.526       .  S
C655        C794   1.537       .  S
C656        H663   1.086       .  S
C656        C657   1.359       .  D
C657        C658   1.568       .  S
C658        C662   1.542       .  S
C658        C660   1.593       .  S
C658        H664   1.106       .  S
C659        H665   1.081       .  S
C659        C660   1.393       .  D
C661        H666   1.087       .  S
C661        C662   1.363       .  D
C667        C668   1.534       .  S
C667        C673   1.517   1_554  S
C667        C671   1.526       .  S
C667        C824   1.542       .  S
C668        C669   1.378       .  D
C669        C670   1.576   1_554  S
C670        C674   1.557       .  S
C670        C672   1.564       .  S
C670        H676   1.107       .  S
C671        C672   1.371   1_554  D
C673        H678   1.083       .  S
C673        C674   1.363       .  D
In679      O1594   2.214   1_544  S
In679       O690   2.192   1_554  S
In679       O687   2.148   1_554  S
In679       O688   2.266       .  S
In679       O691   2.203   1_554  S
C680        O686   1.258       .  A
C680        C777   1.485       .  S
O681       C1601   1.273       .  A
O682      In1591   2.244   1_556  S
C683        O684   1.275       .  A
C683        C784   1.484       .  S
C685        O687   1.259       .  A
C685        O691   1.262       .  A
C689       O1593   1.268       .  A
C692        C698   1.511   1_554  S
C692        C764   1.526       .  S
C693        H700   1.083       .  S
C694        C695   1.572   1_554  S
C695        C699   1.558       .  S
C695        C697   1.567       .  S
C695        H701   1.107       .  S
C696        H702   1.082       .  S
C698        H703   1.083       .  S
C698        C699   1.354       .  D
C704        C705   1.528       .  S
C704       C1622   1.546       .  S
C704        C708   1.520       .  S
C704        C774   1.560       .  S
C705        H712   1.076       .  S
C705        C706   1.374       .  D
C706        C707   1.562       .  S
C707       C1623   1.530       .  S
C707        C709   1.588       .  S
C707        H713   1.106       .  S
C708        H714   1.082       .  S
C708        C709   1.383       .  D
C710       C1616   1.530       .  S
C710        H715   1.081       .  S
C710        C711   1.360       .  D
C711       C1619   1.550       .  S
In716       O719   2.253       .  S
In716       O727   2.209       .  S
In716       O724   2.154       .  S
In716       O725   2.223   1_655  S
In716       O728   2.208       .  S
C717        O725   1.251       .  A
C717        C757   1.467       .  S
O719        C726   1.257   1_655  A
C720        O727   1.260       .  A
C720        C767   1.470       .  S
C722        O724   1.260       .  A
C722        O728   1.263       .  A
C729       C1642   1.528       .  S
C729        C735   1.522       .  S
C729        C733   1.533       .  S
C729        C787   1.541       .  S
C730       C1641   1.525       .  S
C730        H737   1.079       .  S
C730        C731   1.372       .  D
C731       C1644   1.588       .  S
C732       C1643   1.583   1_545  S
C732        C736   1.558       .  S
C732        C734   1.562       .  S
C732        H738   1.107   1_545  S
C733        H739   1.082       .  S
C733        C734   1.371       .  D
C735        H740   1.083       .  S
C735        C736   1.364       .  D
C741        C742   1.512       .  S
C741        C747   1.520   1_556  S
C741        C754   1.540       .  S
C742        H749   1.087       .  S
C742        C743   1.362       .  D
C743        C744   1.562       .  S
C744        C748   1.543   1_556  S
C744        C746   1.589   1_556  S
C744        H750   1.106       .  S
C745        H751   1.082       .  S
C747        C748   1.355       .  D
C753        C758   1.417       .  A
C753        H760   1.082       .  S
C754        C755   1.426       .  A
C755        C756   1.382       .  A
C755        F762   1.358       .  S
C756        H761   1.085       .  S
C757        C758   1.419       .  A
C758        F759   1.357   1_545  S
C763        C764   1.423       .  A
C763        C768   1.403   1_554  A
C763        H770   1.081   1_554  S
C765        C766   1.390       .  A
C765        F772   1.355       .  S
C766        C767   1.403       .  A
C766        H771   1.084       .  S
C768        F769   1.357   1_545  S
C773        C774   1.407       .  A
C773        C778   1.399       .  A
C773       H1692   1.083       .  S
C774        C775   1.427       .  A
C775        C776   1.411       .  A
C775        F782   1.357       .  S
C776        C777   1.395       .  A
C776        H781   1.079       .  S
C777        C778   1.409       .  A
C778       F1691   1.355       .  S
F779       C1690   1.358       .  S
H780       C1685   1.073       .  S
C783        C788   1.398       .  A
C783        H790   1.084       .  S
C784        C785   1.398       .  A
C785        C786   1.403       .  A
C785        F792   1.357       .  S
C786        C787   1.421       .  A
C786        H791   1.082       .  S
C788        F789   1.353       .  S
C793        C794   1.406       .  A
C793        C798   1.418       .  A
C793        H800   1.082       .  S
C794        C795   1.421       .  A
C795        C796   1.382       .  A
C795        F802   1.358       .  S
C796        C797   1.391       .  A
C796        H801   1.084       .  S
C797        C798   1.421       .  A
C803        C804   1.400       .  A
C803        C808   1.391       .  A
C804        C805   1.402       .  A
C805        C806   1.417       .  A
C805        F812   1.357       .  S
C806        C807   1.426       .  A
C806        H811   1.083       .  S
C807        C808   1.415       .  A
C813        C818   1.423       .  A
C813        H820   1.080       .  S
C814        C815   1.404       .  A
C815        C816   1.389       .  A
C815        F822   1.358       .  S
C816        H821   1.078       .  S
C817        C818   1.406       .  A
C818        F819   1.353   1_556  S
C823        C824   1.421       .  A
C823        C828   1.403   1_554  A
C823        H830   1.084   1_554  S
C824        C825   1.408       .  A
C825        F832   1.354       .  S
C826        C827   1.413       .  A
C826        H831   1.084       .  S
C828        F829   1.357       .  S
C833        C834   1.413       .  A
C833        C838   1.401       .  A
C833        H840   1.083       .  S
C834        C835   1.397       .  A
C835        C836   1.399       .  A
C835        F842   1.357       .  S
C836        C837   1.420       .  A
C836        H841   1.083       .  S
C837        C838   1.406       .  A
C838        F839   1.355       .  S
C843        C844   1.408       .  A
C843        C848   1.393       .  A
C843        H850   1.077       .  S
C844        C845   1.425       .  A
C845        C846   1.412       .  A
C845        F852   1.357       .  S
C846        C847   1.399       .  A
C846        H851   1.083       .  S
C847        C848   1.406       .  A
C848        F849   1.357       .  S
C853        C854   1.405       .  A
C853        C858   1.416       .  A
C853        H860   1.082       .  S
C854        C855   1.425       .  A
C855        C856   1.378       .  A
C855        F862   1.358       .  S
C856        C857   1.386       .  A
C856        H861   1.085       .  S
C857        C858   1.420       .  A
C858        F859   1.357       .  S
C863        C864   1.404       .  A
C863        C868   1.393       .  A
C863        H870   1.084       .  S
C864        C865   1.397       .  A
C865        C866   1.405       .  A
C865        F872   1.356       .  S
C866        C867   1.422       .  A
C866        H871   1.082       .  S
C867        C868   1.414       .  A
C868        F869   1.355       .  S
C873        C874   1.413       .  A
C873        C878   1.403       .  A
C873        H880   1.083       .  S
C874        C875   1.400       .  A
C875        C876   1.406       .  A
C875        F882   1.357   1_545  S
C876        C877   1.423       .  A
C876        H881   1.083       .  S
C877        C878   1.407       .  A
C878        F879   1.354       .  S
C883        C884   1.398       .  A
C883        C888   1.393       .  A
C883        H890   1.084       .  S
C884        C885   1.404       .  A
C885        C886   1.419       .  A
C885        F892   1.354   1_545  S
C886        C887   1.424       .  A
C886        H891   1.083       .  S
C887        C888   1.423       .  A
C888        F889   1.352       .  S
C893        C894   1.402       .  A
C893        C898   1.393       .  A
C893        H900   1.084       .  S
C894        C895   1.397       .  A
C895        C896   1.405       .  A
C895        F902   1.355       .  S
C896        C897   1.422       .  A
C896        H901   1.082       .  S
C897        C898   1.413       .  A
C898       F1811   1.355   1_545  S
F899       C1810   1.354       .  S
C903        C904   1.405       .  A
C903        C908   1.421       .  A
C903        H910   1.082       .  S
C904        C905   1.425       .  A
C905        C906   1.378       .  A
C905       F1824   1.358       .  S
C906        C907   1.389       .  A
C906        H911   1.084       .  S
C907        C908   1.422       .  A
C908        F909   1.356       .  S
F912       C1817   1.358       .  S
In913       O915   2.256       .  S
In913       O924   2.207       .  S
In913       O918   2.262       .  S
In913       O920   2.266       .  S
In913       O921   2.136       .  S
In913       O922   2.225       .  S
In913       O925   2.207       .  S
C914        O920   1.274       .  A
C914        O922   1.251       .  A
C914       C1363   1.477       .  S
O916        C923   1.257   1_545  A
C917        O924   1.259       .  A
C917        O918   1.263       .  A
C917       C1350   1.477       .  S
C919        O921   1.260       .  A
C919        O925   1.264       .  A
C919       C1141   1.414       .  S
C923        C997   1.469       .  S
C926        C927   1.512       .  S
C926        C932   1.537       .  S
C926        C930   1.532       .  S
C926       C1343   1.550       .  S
C927        H934   1.089       .  S
C927        C928   1.366       .  D
C928        C929   1.567       .  S
C928       C1155   1.550       .  S
C929        C933   1.544       .  S
C929        C931   1.601       .  S
C929        H935   1.107       .  S
C930        H936   1.083       .  S
C930        C931   1.393       .  D
C931        C943   1.512       .  S
C932        H937   1.087       .  S
C932        C933   1.360       .  D
C933       C1007   1.506       .  S
C938        C944   1.510       .  S
C938        C942   1.529       .  S
C938       C1353   1.532       .  S
C939        H946   1.082   1_545  S
C939        C940   1.372   1_545  D
C940       C1014   1.488       .  S
C941        C945   1.571       .  S
C941        C943   1.573       .  S
C941        H947   1.108       .  S
C942        H948   1.081       .  S
C942        C943   1.368       .  D
C944        H949   1.085       .  S
C944        C945   1.355       .  D
C945       C1162   1.549       .  S
In950       O952   2.259   1_655  S
In950       O953   2.232   1_655  S
In950       O961   2.207   1_655  S
In950       O955   2.323   1_655  S
In950       O957   2.226       .  S
In950       O958   2.146       .  S
In950       O959   2.273       .  S
In950       O962   2.207       .  S
C951        O957   1.267       .  A
C951        O959   1.264       .  A
C951       C1340   1.501       .  S
O952        C960   1.268       .  A
O953        C960   1.254       .  A
C954        O961   1.252       .  A
C954        O955   1.276       .  A
C954       C1330   1.496       .  S
C956        O958   1.260       .  A
C956        O962   1.266       .  A
C956       C1178   1.415       .  S
C960       C1034   1.461       .  S
C963        C964   1.536       .  S
C963        C969   1.513       .  S
C963        C967   1.534       .  S
C963       C1333   1.552       .  S
C964        H971   1.080       .  S
C964        C965   1.380       .  D
C965        C966   1.573       .  S
C965       C1051   1.494       .  S
C966        C970   1.557       .  S
C966        C968   1.564       .  S
C966        H972   1.107       .  S
C967        H973   1.082       .  S
C967        C968   1.376       .  D
C968        C980   1.509       .  S
C969        H974   1.083       .  S
C969        C970   1.362       .  D
C970       C1199   1.536       .  S
C975        C976   1.515       .  S
C975        C979   1.533       .  S
C975       C1360   1.541       .  S
C976        H983   1.087       .  S
C976        C977   1.362       .  D
C977        C978   1.570       .  S
C977       C1192   1.541       .  S
C978        C980   1.592       .  S
C978        H984   1.106       .  S
C979        H985   1.082       .  S
C979        C980   1.397       .  D
C981        H986   1.088   1_545  S
C981        C982   1.352   1_545  D
C982       C1044   1.498       .  S
In987       O989   2.261       .  S
In987       O990   2.254       .  S
In987       O998   2.209       .  S
In987       O992   2.260       .  S
In987       O994   2.261       .  S
In987       O995   2.145       .  S
In987       O996   2.227       .  S
In987       O999   2.213       .  S
C988        O994   1.272       .  A
C988        O996   1.251       .  A
C988       C1313   1.475       .  S
O989        C997   1.265       .  A
O990        C997   1.257       .  A
C991        O998   1.258       .  A
C991        O992   1.262       .  A
C991       C1320   1.475       .  S
C993        O995   1.261       .  A
C993        O999   1.264       .  A
C993       C1067   1.419       .  S
C1000      C1001   1.517       .  S
C1000      C1006   1.543       .  S
C1000      C1004   1.523       .  S
C1000      C1300   1.555       .  S
C1001      H1008   1.073       .  S
C1001      C1002   1.367       .  D
C1002      C1003   1.563       .  S
C1002      C1081   1.534       .  S
C1003      C1007   1.544       .  S
C1003      C1005   1.588       .  S
C1003      H1009   1.106       .  S
C1004      H1010   1.082       .  S
C1004      C1005   1.381       .  D
C1005      C1017   1.505       .  S
C1006      H1011   1.084       .  S
C1006      C1007   1.362       .  D
C1012      C1013   1.533       .  S
C1012      C1018   1.512       .  S
C1012      C1016   1.526       .  S
C1012      C1323   1.531       .  S
C1013      H1020   1.082       .  S
C1013      C1014   1.378       .  D
C1014      C1015   1.573       .  S
C1015      C1019   1.560       .  S
C1015      C1017   1.573       .  S
C1015      H1021   1.107       .  S
C1016      H1022   1.081       .  S
C1016      C1017   1.368       .  D
C1018      H1023   1.085       .  S
C1018      C1019   1.359       .  D
C1019      C1088   1.539       .  S
In1024     O1026   2.246       .  S
In1024     O1027   2.216       .  S
In1024     O1035   2.187       .  S
In1024     O1029   2.291       .  S
In1024     O1031   2.273   1_455  S
In1024     O1032   2.115   1_455  S
In1024     O1033   2.222   1_455  S
In1024     O1036   2.220   1_455  S
C1025      O1031   1.265       .  A
C1025      O1033   1.259       .  A
C1025      C1303   1.481       .  S
O1026      C1034   1.273       .  A
O1027      C1034   1.258       .  A
C1028      O1035   1.252       .  A
C1028      O1029   1.276       .  A
C1028      C1290   1.479       .  S
C1030      O1032   1.257       .  A
C1030      O1036   1.263       .  A
C1030      C1104   1.412       .  S
C1037      C1038   1.513       .  S
C1037      C1043   1.525       .  S
C1037      C1041   1.531       .  S
C1037      C1310   1.535       .  S
C1038      H1045   1.086       .  S
C1038      C1039   1.359       .  D
C1039      C1040   1.567       .  S
C1039      C1130   1.539       .  S
C1040      C1044   1.543       .  S
C1040      C1042   1.593       .  S
C1040      H1046   1.106       .  S
C1041      H1047   1.083       .  S
C1041      C1042   1.392       .  D
C1042      C1054   1.503       .  S
C1043      H1048   1.087       .  S
C1043      C1044   1.360       .  D
C1049      C1050   1.529       .  S
C1049      C1055   1.519       .  S
C1049      C1053   1.523       .  S
C1049      C1293   1.533       .  S
C1050      H1057   1.082       .  S
C1050      C1051   1.377       .  D
C1051      C1052   1.582       .  S
C1052      C1056   1.560       .  S
C1052      C1054   1.565       .  S
C1052      H1058   1.107       .  S
C1053      H1059   1.081       .  S
C1053      C1054   1.367       .  D
C1055      H1060   1.085       .  S
C1055      C1056   1.363       .  D
C1056      C1113   1.538       .  S
In1061     O1519   2.246   1_554  S
In1061     O1064   2.234       .  S
In1061     O1072   2.196       .  S
In1061     O1522   2.306   1_554  S
In1061     O1524   2.225   1_554  S
In1061     O1069   2.143       .  S
In1061     O1070   2.266   1_554  S
In1061     O1073   2.215       .  S
C1062      O1524   1.266       .  A
C1062      O1070   1.262       .  A
C1062      C1270   1.495       .  S
O1063     In1517   2.242       .  S
O1063      C1527   1.268       .  A
O1064      C1071   1.256       .  A
C1065      O1072   1.251       .  A
C1065      O1522   1.276   1_554  A
C1065      C1283   1.488       .  S
O1066     In1517   2.296       .  S
O1066      C1521   1.275       .  A
C1067      O1069   1.260       .  A
C1067      O1073   1.267       .  A
O1068     In1517   2.228       .  S
O1068      C1518   1.265       .  A
C1071      O1519   1.267   1_554  A
C1071      C1145   1.459       .  S
C1074      C1075   1.528   1_554  S
C1074      C1080   1.515       .  S
C1074      C1078   1.539       .  S
C1074      C1263   1.542   1_554  S
C1075      H1082   1.079       .  S
C1075      C1076   1.377   1_556  D
C1076      C1077   1.573       .  S
C1076      C1606   1.487       .  S
C1077      C1081   1.557       .  S
C1077      C1079   1.564       .  S
C1077      H1083   1.107       .  S
C1078      H1084   1.082   1_554  S
C1078      C1079   1.378       .  D
C1079      C1547   1.513       .  S
C1080      H1085   1.088       .  S
C1080      C1081   1.356       .  D
C1086      C1087   1.510       .  S
C1086      C1092   1.530       .  S
C1086      C1546   1.535       .  S
C1086      C1273   1.555       .  S
C1087      H1094   1.080       .  S
C1087      C1088   1.363       .  D
C1088      C1089   1.566       .  S
C1089      C1093   1.556       .  S
C1089      C1091   1.586       .  S
C1089      H1095   1.107       .  S
C1090      C1542   1.539       .  S
C1090      H1096   1.082       .  S
C1090      C1547   1.393       .  D
C1091      C1546   1.390       .  D
C1091      C1535   1.518       .  S
C1092      H1553   1.082       .  S
C1092      C1093   1.358       .  D
C1093      C1623   1.496   1_565  S
H1097      C1548   1.086       .  S
In1098     O1556   2.279       .  S
In1098     O1101   2.246       .  S
In1098     O1109   2.225       .  S
In1098     O1559   2.283       .  S
In1098     O1561   2.258   1_655  S
In1098     O1106   2.135       .  S
In1098     O1107   2.249   1_655  S
In1098     O1110   2.216       .  S
C1099      O1105   1.273       .  A
C1099      O1563   1.251   1_554  A
C1099      C1253   1.485       .  S
O1100     In1554   2.270       .  S
O1100      C1108   1.269       .  A
O1101      C1564   1.255       .  A
C1102      O1565   1.257       .  A
C1102      O1103   1.263       .  A
C1102      C1260   1.485       .  S
O1103     In1554   2.283       .  S
C1104      O1106   1.259       .  A
C1104      O1110   1.262       .  A
O1105     In1554   2.265   1_455  S
O1107      C1555   1.251       .  A
C1108      O1557   1.256   1_554  A
C1108      C1182   1.462       .  S
O1109      C1558   1.258       .  A
C1111      C1112   1.510       .  S
C1111      C1117   1.524       .  S
C1111      C1115   1.533   1_554  S
C1111      C1250   1.540       .  S
C1112      H1119   1.087       .  S
C1112      C1113   1.359       .  D
C1113      C1114   1.568       .  S
C1114      C1118   1.544       .  S
C1114      C1116   1.588       .  S
C1114      H1120   1.106       .  S
C1115      H1121   1.082       .  S
C1115      C1116   1.396   1_556  D
C1116      C1584   1.502   1_554  S
C1117      H1122   1.088   1_554  S
C1117      C1118   1.360       .  D
C1118      C1660   1.497       .  S
C1123      C1124   1.531       .  S
C1123      C1129   1.520       .  S
C1123      C1127   1.530       .  S
C1123      C1280   1.542       .  S
C1124      H1587   1.081       .  S
C1124      C1125   1.381       .  D
C1125      C1126   1.579       .  S
C1125      C1643   1.496       .  S
C1126      C1130   1.559       .  S
C1126      C1128   1.556       .  S
C1126      H1132   1.107       .  S
C1127      H1589   1.081       .  S
C1127      C1128   1.371       .  D
C1128      C1572   1.502       .  S
C1129      H1134   1.084       .  S
C1129      C1130   1.362       .  D
H1131      C1580   1.082       .  S
H1133      C1583   1.081       .  S
In1135     O1593   2.250       .  S
In1135     O1146   2.203       .  S
In1135     O1596   2.298       .  S
In1135     O1598   2.225       .  S
In1135     O1143   2.138       .  S
In1135     O1144   2.263       .  S
In1135     O1147   2.216       .  S
C1136      O1142   1.264       .  A
C1136      O1600   1.261       .  A
C1136      C1233   1.489       .  S
O1137     In1591   2.250       .  S
O1138      C1601   1.255       .  A
C1139      O1602   1.252   1_554  A
C1139      O1140   1.274       .  A
C1139      C1240   1.487   1_554  S
O1140     In1591   2.309       .  S
C1141      O1143   1.257       .  A
C1141      O1147   1.265       .  A
O1142     In1591   2.222       .  S
O1144      C1592   1.262       .  A
C1145      O1594   1.257   1_554  A
O1146      C1595   1.252       .  A
C1148      C1605   1.518       .  S
C1148      C1154   1.525       .  S
C1148      C1608   1.536       .  S
C1148      C1220   1.524       .  S
C1149      C1604   1.525       .  S
C1149      H1156   1.083       .  S
C1149      C1606   1.380       .  D
C1150      C1151   1.594       .  S
C1150      C1605   1.377       .  D
C1150      C1532   1.495       .  S
C1151      C1155   1.570       .  S
C1151      C1153   1.555       .  S
C1151      H1157   1.107       .  S
C1152      C1604   1.531       .  S
C1152      H1158   1.081       .  S
C1152      C1609   1.368   1_554  D
C1153      C1608   1.368       .  D
C1153      C1621   1.502       .  S
C1154      H1159   1.089       .  S
C1154      C1155   1.358       .  D
C1160      C1161   1.508       .  S
C1160      C1164   1.530   1_554  S
C1160      C1230   1.549       .  S
C1161      H1168   1.080       .  S
C1161      C1162   1.367       .  D
C1162      C1163   1.567       .  S
C1163      C1165   1.586       .  S
C1163      H1169   1.106       .  S
C1164      H1170   1.082       .  S
C1164      C1165   1.387   1_556  D
C1165      C1609   1.503   1_554  S
C1166      H1171   1.086       .  S
C1166      C1167   1.364   1_545  D
C1167      C1549   1.495       .  S
In1172     O1630   2.235   1_554  S
In1172     O1175   2.253       .  S
In1172     O1183   2.195   1_554  S
In1172     O1633   2.258   1_554  S
In1172     O1635   2.259   1_654  S
In1172     O1180   2.144       .  S
In1172     O1181   2.227   1_655  S
In1172     O1184   2.206       .  S
C1173      O1635   1.272   1_554  A
C1173      O1181   1.254       .  A
C1173      C1213   1.475   1_554  S
O1174     In1628   2.244   1_455  S
O1174      C1638   1.265   1_455  A
O1175      C1182   1.259       .  A
C1176      O1183   1.258       .  A
C1176      O1633   1.262       .  A
C1176      C1223   1.476       .  S
O1177     In1628   2.252       .  S
O1177      C1632   1.262       .  A
C1178      O1180   1.260       .  A
C1178      O1184   1.264       .  A
O1179     In1628   2.256   1_455  S
O1179      C1629   1.272       .  A
C1182      O1630   1.265   1_554  A
C1185      C1191   1.518       .  S
C1185      C1189   1.528       .  S
C1185      C1243   1.543   1_554  S
C1186      H1193   1.078       .  S
C1186      C1187   1.374   1_556  D
C1187      C1581   1.491       .  S
C1188      C1192   1.559       .  S
C1188      C1190   1.564       .  S
C1188      H1194   1.107       .  S
C1189      H1195   1.082   1_554  S
C1189      C1190   1.372       .  D
C1190      C1658   1.508       .  S
C1191      H1196   1.076       .  S
C1191      C1192   1.362       .  D
C1197      C1198   1.509       .  S
C1197      C1203   1.520       .  S
C1197      C1657   1.539       .  S
C1197      C1210   1.537       .  S
C1198      H1205   1.088       .  S
C1198      C1199   1.357       .  D
C1199      C1200   1.569       .  S
C1200      C1204   1.551       .  S
C1200      C1202   1.595       .  S
C1200      H1206   1.105       .  S
C1201      C1653   1.538   1_554  S
C1201      H1207   1.083       .  S
C1201      C1658   1.397       .  D
C1202      C1657   1.398       .  D
C1202      C1646   1.512       .  S
C1203      H1664   1.088       .  S
C1203      C1204   1.352       .  D
C1204      C1574   1.500       .  S
H1208      C1659   1.088       .  S
C1209      C1666   1.405   1_554  A
C1209      C1214   1.417       .  A
C1209      H1216   1.082       .  S
C1210      C1665   1.404       .  A
C1210      C1211   1.427       .  A
C1211      C1212   1.378       .  A
C1211      F1218   1.359       .  S
C1212      C1669   1.385       .  A
C1212      H1217   1.085       .  S
C1213      C1668   1.386       .  A
C1213      C1214   1.418   1_556  A
C1214      F1215   1.357       .  S
C1219      C1220   1.421       .  A
C1219      C1224   1.401       .  A
C1219      H1226   1.081       .  S
C1220      C1677   1.412       .  A
C1221      C1676   1.413       .  A
C1221      C1222   1.395       .  A
C1221      F1228   1.355       .  S
C1222      C1223   1.404   1_554  A
C1222      H1227   1.084       .  S
C1223      C1680   1.396       .  A
C1224      C1679   1.396       .  A
C1224      F1225   1.356       .  S
C1229      C1230   1.415       .  A
C1229      C1234   1.389       .  A
C1230      C1231   1.421       .  A
C1231      C1232   1.417       .  A
C1231      F1238   1.354       .  S
C1232      C1233   1.405       .  A
C1232      H1237   1.083       .  S
C1233      C1234   1.404       .  A
C1239      C1696   1.410       .  A
C1239      C1244   1.400       .  A
C1239      H1246   1.084       .  S
C1240      C1695   1.412       .  A
C1240      C1241   1.400   1_556  A
C1241      C1242   1.404       .  A
C1241      F1248   1.358       .  S
C1242      C1243   1.422   1_554  A
C1242      H1247   1.083       .  S
C1243      C1700   1.406       .  A
C1244      C1699   1.410       .  A
C1244      F1245   1.355       .  S
C1249      C1250   1.405   1_556  A
C1249      C1254   1.418   1_556  A
C1249      H1256   1.082       .  S
C1250      C1251   1.424       .  A
C1251      C1252   1.385       .  A
C1251      F1258   1.359       .  S
C1252      C1253   1.391       .  A
C1252      H1257   1.084       .  S
C1253      C1254   1.421       .  A
C1254      F1711   1.356   1_554  S
F1255      C1710   1.356       .  S
C1259      C1260   1.405   1_556  A
C1259      C1264   1.398       .  A
C1259      H1722   1.084       .  S
C1260      C1261   1.398       .  A
C1261      C1262   1.411       .  A
C1261      F1268   1.356       .  S
C1262      C1263   1.424   1_554  A
C1262      H1267   1.082       .  S
C1263      C1264   1.414       .  A
C1264      F1721   1.354       .  S
F1265      C1720   1.354       .  S
H1266      C1715   1.084       .  S
C1269      C1726   1.405       .  A
C1269      C1274   1.418       .  A
C1269      H1276   1.082       .  S
C1270      C1725   1.409       .  A
C1270      C1271   1.403       .  A
C1271      C1272   1.388   1_556  A
C1271      F1278   1.358       .  S
C1272      C1729   1.416       .  A
C1272      H1277   1.078       .  S
C1273      C1728   1.412       .  A
C1273      C1274   1.421       .  A
C1274      F1275   1.354       .  S
C1279      C1280   1.420       .  A
C1279      C1284   1.400       .  A
C1279      H1286   1.083       .  S
C1280      C1281   1.408       .  A
C1281      C1738   1.404       .  A
C1281      F1288   1.355       .  S
C1282      C1737   1.404       .  A
C1282      C1283   1.414       .  A
C1282      H1287   1.083       .  S
C1283      C1740   1.397   1_554  A
C1284      C1739   1.397       .  A
C1284      F1285   1.357       .  S
C1289      C1290   1.412       .  A
C1289      C1294   1.398       .  A
C1289      H1296   1.083       .  S
C1290      C1291   1.397       .  A
C1291      C1292   1.399       .  A
C1291      F1298   1.357       .  S
C1292      C1293   1.420       .  A
C1292      H1297   1.084       .  S
C1293      C1294   1.404       .  A
C1294      F1295   1.353       .  S
C1299      C1300   1.404       .  A
C1299      C1304   1.396       .  A
C1299      H1306   1.084       .  S
C1300      C1301   1.427       .  A
C1301      C1302   1.408       .  A
C1301      F1308   1.357       .  S
C1302      C1303   1.397       .  A
C1302      H1307   1.083       .  S
C1303      C1304   1.411       .  A
C1304      F1305   1.354       .  S
C1309      C1310   1.405       .  A
C1309      C1314   1.416       .  A
C1309      H1316   1.082       .  S
C1310      C1311   1.423       .  A
C1311      C1312   1.381       .  A
C1311      F1318   1.358       .  S
C1312      C1313   1.388       .  A
C1312      H1317   1.085       .  S
C1313      C1314   1.419       .  A
C1314      F1315   1.357       .  S
C1319      C1320   1.404       .  A
C1319      C1324   1.395       .  A
C1319      H1326   1.084       .  S
C1320      C1321   1.395       .  A
C1321      C1322   1.405       .  A
C1321      F1328   1.356       .  S
C1322      C1323   1.423       .  A
C1322      H1327   1.082       .  S
C1323      C1324   1.413       .  A
C1324      F1325   1.355       .  S
C1329      C1330   1.412       .  A
C1329      C1334   1.404       .  A
C1329      H1336   1.083       .  S
C1330      C1331   1.401       .  A
C1331      C1332   1.409       .  A
C1331      F1338   1.357       .  S
C1332      C1333   1.424       .  A
C1332      H1337   1.083       .  S
C1333      C1334   1.410       .  A
C1334      F1335   1.354       .  S
C1339      C1340   1.396       .  A
C1339      C1344   1.389       .  A
C1339      H1346   1.083       .  S
C1340      C1341   1.413       .  A
C1341      C1342   1.423       .  A
C1341      F1348   1.349       .  S
C1342      C1343   1.410       .  A
C1342      H1347   1.082       .  S
C1343      C1344   1.425       .  A
C1344      F1345   1.358       .  S
C1349      C1350   1.405       .  A
C1349      C1354   1.395       .  A
C1349      H1356   1.084       .  S
C1350      C1351   1.395       .  A
C1351      C1352   1.406       .  A
C1351      F1358   1.357       .  S
C1352      C1353   1.425       .  A
C1352      H1357   1.082       .  S
C1353      C1354   1.413       .  A
C1359      C1360   1.406       .  A
C1359      C1364   1.419       .  A
C1359      H1366   1.082       .  S
C1360      C1361   1.424       .  A
C1361      C1362   1.380       .  A
C1362      C1363   1.385       .  A
C1362      H1367   1.085       .  S
C1363      C1364   1.421       .  A
C1364      F1365   1.357       .  S
In1369     O1371   2.266       .  S
In1369     O1380   2.219       .  S
In1369     O1374   2.278       .  S
In1369     O1376   2.273       .  S
In1369     O1377   2.148       .  S
In1369     O1378   2.250       .  S
In1369     O1381   2.216       .  S
C1370      O1376   1.272       .  A
C1370      O1378   1.251       .  A
C1370      C1819   1.487       .  S
O1372      C1379   1.257   1_545  A
C1373      O1380   1.257       .  A
C1373      O1374   1.263       .  A
C1373      C1806   1.483       .  S
C1375      O1377   1.260       .  A
C1375      O1381   1.265       .  A
C1375      C1597   1.421       .  S
C1379      C1453   1.469       .  S
C1382      C1383   1.505       .  S
C1382      C1388   1.536       .  S
C1382      C1386   1.541       .  S
C1382      C1799   1.548       .  S
C1383      H1390   1.090       .  S
C1383      C1384   1.358       .  D
C1384      C1385   1.569       .  S
C1384      C1611   1.538       .  S
C1385      C1389   1.538       .  S
C1385      C1387   1.589       .  S
C1385      H1391   1.105       .  S
C1386      H1392   1.083       .  S
C1386      C1387   1.400       .  D
C1387      C1399   1.510       .  S
C1388      H1393   1.087       .  S
C1388      C1389   1.358       .  D
C1389      C1463   1.504       .  S
C1394      C1400   1.500       .  S
C1394      C1398   1.527       .  S
C1394      C1809   1.539       .  S
C1395      H1402   1.082   1_545  S
C1395      C1396   1.375   1_545  D
C1396      C1470   1.485       .  S
C1397      C1401   1.566       .  S
C1397      C1399   1.565       .  S
C1397      H1403   1.108       .  S
C1398      H1404   1.080       .  S
C1398      C1399   1.373       .  D
C1400      H1405   1.084       .  S
C1400      C1401   1.351       .  D
C1401      C1618   1.535       .  S
In1406     O1408   2.243       .  S
In1406     O1409   2.238       .  S
In1406     O1417   2.207       .  S
In1406     O1411   2.309       .  S
In1406     O1413   2.227   1_455  S
In1406     O1414   2.152   1_455  S
In1406     O1415   2.253   1_455  S
In1406     O1418   2.218   1_455  S
C1407      O1413   1.266       .  A
C1407      O1415   1.264       .  A
C1407      C1796   1.498       .  S
O1408      C1416   1.268       .  A
O1409      C1416   1.256       .  A
C1410      O1417   1.253       .  A
C1410      O1411   1.275       .  A
C1410      C1786   1.492       .  S
C1412      O1414   1.258       .  A
C1412      O1418   1.266       .  A
C1412      C1634   1.420       .  S
C1416      C1490   1.460       .  S
C1419      C1420   1.533       .  S
C1419      C1425   1.516       .  S
C1419      C1423   1.535       .  S
C1419      C1789   1.547       .  S
C1420      H1427   1.081       .  S
C1420      C1421   1.379       .  D
C1421      C1422   1.581       .  S
C1421      C1507   1.497       .  S
C1422      C1426   1.559       .  S
C1422      C1424   1.563       .  S
C1422      H1428   1.107       .  S
C1423      H1429   1.082       .  S
C1423      C1424   1.374       .  D
C1424      C1436   1.512       .  S
C1425      H1430   1.083       .  S
C1425      C1426   1.359       .  D
C1426      C1655   1.536       .  S
C1431      C1432   1.514       .  S
C1431      C1435   1.537       .  S
C1431      C1816   1.546       .  S
C1432      H1439   1.087       .  S
C1432      C1433   1.362       .  D
C1433      C1434   1.568       .  S
C1433      C1648   1.543       .  S
C1434      C1436   1.593       .  S
C1434      H1440   1.106       .  S
C1435      H1441   1.083       .  S
C1435      C1436   1.398       .  D
C1437      H1442   1.088   1_545  S
C1437      C1438   1.355   1_545  D
C1438      C1500   1.498       .  S
In1443     O1445   2.258       .  S
In1443     O1446   2.254       .  S
In1443     O1454   2.209       .  S
In1443     O1448   2.258       .  S
In1443     O1450   2.259       .  S
In1443     O1451   2.138       .  S
In1443     O1452   2.223       .  S
In1443     O1455   2.212       .  S
C1444      O1450   1.274       .  A
C1444      O1452   1.253       .  A
C1444      C1769   1.476       .  S
O1445      C1453   1.266       .  A
O1446      C1453   1.258       .  A
C1447      O1454   1.260       .  A
C1447      O1448   1.262       .  A
C1447      C1776   1.477       .  S
C1449      O1451   1.259       .  A
C1449      O1455   1.263       .  A
C1449      C1523   1.414       .  S
C1456      C1457   1.521       .  S
C1456      C1462   1.544       .  S
C1456      C1460   1.526       .  S
C1456      C1756   1.560       .  S
C1457      H1464   1.075       .  S
C1457      C1458   1.372       .  D
C1458      C1459   1.568       .  S
C1458      C1537   1.547       .  S
C1459      C1463   1.545       .  S
C1459      C1461   1.586       .  S
C1459      H1465   1.106       .  S
C1460      H1466   1.082       .  S
C1460      C1461   1.383       .  D
C1461      C1473   1.509       .  S
C1462      H1467   1.084       .  S
C1462      C1463   1.358       .  D
C1468      C1469   1.529       .  S
C1468      C1474   1.515       .  S
C1468      C1472   1.531       .  S
C1468      C1779   1.528       .  S
C1469      H1476   1.083       .  S
C1469      C1470   1.376       .  D
C1470      C1471   1.581       .  S
C1471      C1475   1.563       .  S
C1471      C1473   1.568       .  S
C1471      H1477   1.107       .  S
C1472      H1478   1.081       .  S
C1472      C1473   1.371       .  D
C1474      H1479   1.086       .  S
C1474      C1475   1.354       .  D
C1475      C1544   1.541       .  S
In1480     O1482   2.259       .  S
In1480     O1483   2.209       .  S
In1480     O1491   2.202       .  S
In1480     O1485   2.294       .  S
In1480     O1487   2.287   1_455  S
In1480     O1488   2.122   1_455  S
In1480     O1489   2.221   1_455  S
In1480     O1492   2.217   1_455  S
C1481      O1487   1.268       .  A
C1481      O1489   1.259       .  A
C1481      C1759   1.487       .  S
O1482      C1490   1.273       .  A
O1483      C1490   1.256       .  A
C1484      O1491   1.253       .  A
C1484      O1485   1.276       .  A
C1484      C1746   1.482       .  S
C1486      O1488   1.257       .  A
C1486      O1492   1.263       .  A
C1486      C1560   1.412       .  S
C1493      C1494   1.511       .  S
C1493      C1499   1.523       .  S
C1493      C1497   1.535       .  S
C1493      C1766   1.538       .  S
C1494      H1501   1.087       .  S
C1494      C1495   1.361       .  D
C1495      C1496   1.566       .  S
C1495      C1586   1.536       .  S
C1496      C1500   1.545       .  S
C1496      C1498   1.592       .  S
C1496      H1502   1.106       .  S
C1497      H1503   1.083       .  S
C1497      C1498   1.395       .  D
C1498      C1510   1.508       .  S
C1499      H1504   1.088       .  S
C1499      C1500   1.357       .  D
C1505      C1506   1.532       .  S
C1505      C1511   1.516       .  S
C1505      C1509   1.527       .  S
C1505      C1749   1.541       .  S
C1506      H1513   1.081       .  S
C1506      C1507   1.380       .  D
C1507      C1508   1.580       .  S
C1508      C1512   1.562       .  S
C1508      C1510   1.564       .  S
C1508      H1514   1.107       .  S
C1509      H1515   1.081       .  S
C1509      C1510   1.370       .  D
C1511      H1516   1.086       .  S
C1511      C1512   1.363       .  D
C1512      C1569   1.539       .  S
In1517     O1520   2.243       .  S
In1517     O1528   2.201       .  S
In1517     O1525   2.127       .  S
In1517     O1526   2.266       .  S
In1517     O1529   2.222       .  S
C1518      O1526   1.264       .  A
C1518      C1726   1.495       .  S
O1520      C1527   1.256       .  A
C1521      O1528   1.252       .  A
C1521      C1739   1.486       .  S
C1523      O1525   1.257       .  A
C1523      O1529   1.267       .  A
C1527      C1601   1.460       .  S
C1530      C1531   1.527       .  S
C1530      C1536   1.520       .  S
C1530      C1534   1.546       .  S
C1530      C1719   1.540       .  S
C1531      H1538   1.082       .  S
C1531      C1532   1.379       .  D
C1532      C1533   1.584       .  S
C1533      C1537   1.570       .  S
C1533      C1535   1.561       .  S
C1533      H1539   1.107       .  S
C1534      H1540   1.083       .  S
C1534      C1535   1.377       .  D
C1536      H1541   1.090       .  S
C1536      C1537   1.355       .  D
C1542      C1543   1.506   1_554  S
C1542      C1548   1.528       .  S
C1542      C1729   1.551       .  S
C1543      H1550   1.083       .  S
C1543      C1544   1.365       .  D
C1544      C1545   1.564       .  S
C1545      C1549   1.560   1_556  S
C1545      C1547   1.581   1_556  S
C1545      H1551   1.107       .  S
C1546      H1552   1.082       .  S
C1548      C1549   1.354       .  D
In1554     O1557   2.224   1_554  S
In1554     O1565   2.219       .  S
In1554     O1562   2.134   1_554  S
In1554     O1563   2.240   1_654  S
In1554     O1566   2.212   1_554  S
C1555      O1561   1.271       .  A
C1555      C1709   1.487       .  S
O1556      C1564   1.266       .  A
C1558      O1559   1.262       .  A
C1558      C1716   1.488       .  S
C1560      O1562   1.259       .  A
C1560      O1566   1.263       .  A
C1564      C1638   1.468       .  S
C1567      C1568   1.510       .  S
C1567      C1573   1.526       .  S
C1567      C1571   1.534       .  S
C1567      C1706   1.542       .  S
C1568      H1575   1.088       .  S
C1568      C1569   1.357       .  D
C1569      C1570   1.568       .  S
C1570      C1574   1.545       .  S
C1570      C1572   1.589       .  S
C1570      H1576   1.106       .  S
C1571      H1577   1.082       .  S
C1571      C1572   1.398       .  D
C1573      H1578   1.087       .  S
C1573      C1574   1.359       .  D
C1579      C1580   1.534       .  S
C1579      C1585   1.516   1_554  S
C1579      C1583   1.530       .  S
C1579      C1736   1.542       .  S
C1580      C1581   1.384       .  D
C1581      C1582   1.578   1_554  S
C1582      C1586   1.558       .  S
C1582      C1584   1.557       .  S
C1582      H1588   1.107       .  S
C1583      C1584   1.371   1_554  D
C1585      H1590   1.082       .  S
C1585      C1586   1.359       .  D
In1591     O1602   2.194   1_554  S
In1591     O1599   2.155   1_554  S
In1591     O1600   2.263       .  S
In1591     O1603   2.218   1_554  S
C1592      O1598   1.265       .  A
C1592      C1689   1.489       .  S
C1595      O1596   1.273       .  A
C1595      C1696   1.483       .  S
C1597      O1599   1.259       .  A
C1597      O1603   1.264       .  A
C1604      C1610   1.515   1_554  S
C1604      C1676   1.531       .  S
C1605      H1612   1.083       .  S
C1606      C1607   1.579   1_554  S
C1607      C1611   1.560       .  S
C1607      C1609   1.563       .  S
C1607      H1613   1.107       .  S
C1608      H1614   1.081       .  S
C1610      H1615   1.087       .  S
C1610      C1611   1.358       .  D
C1616      C1617   1.511       .  S
C1616      C1620   1.532       .  S
C1616      C1686   1.554       .  S
C1617      H1624   1.078       .  S
C1617      C1618   1.365       .  D
C1618      C1619   1.552       .  S
C1619      C1621   1.582       .  S
C1619      H1625   1.105       .  S
C1620      H1626   1.082       .  S
C1620      C1621   1.387       .  D
C1622      H1627   1.085       .  S
C1622      C1623   1.364       .  D
In1628     O1631   2.258       .  S
In1628     O1639   2.203       .  S
In1628     O1636   2.150       .  S
In1628     O1637   2.225   1_655  S
In1628     O1640   2.212       .  S
C1629      O1637   1.253       .  A
C1629      C1669   1.473       .  S
O1631      C1638   1.259       .  A
C1632      O1639   1.258       .  A
C1632      C1679   1.471       .  S
C1634      O1636   1.261       .  A
C1634      O1640   1.263       .  A
C1641      C1647   1.520       .  S
C1641      C1645   1.528       .  S
C1641      C1699   1.540       .  S
C1642      H1649   1.081   1_545  S
C1642      C1643   1.376   1_545  D
C1644      C1648   1.564       .  S
C1644      C1646   1.570       .  S
C1644      H1650   1.108       .  S
C1645      H1651   1.081       .  S
C1645      C1646   1.373       .  D
C1647      H1652   1.084       .  S
C1647      C1648   1.362       .  D
C1653      C1654   1.512       .  S
C1653      C1659   1.519   1_556  S
C1653      C1666   1.538       .  S
C1654      H1661   1.087       .  S
C1654      C1655   1.362       .  D
C1655      C1656   1.565       .  S
C1656      C1660   1.550   1_556  S
C1656      C1658   1.590   1_556  S
C1656      H1662   1.106       .  S
C1657      H1663   1.083       .  S
C1659      C1660   1.352       .  D
C1665      C1670   1.417       .  A
C1665      H1672   1.082       .  S
C1666      C1667   1.427       .  A
C1667      C1668   1.380       .  A
C1667      F1674   1.358       .  S
C1668      H1673   1.085       .  S
C1669      C1670   1.419       .  A
C1670      F1671   1.357       .  S
C1675      C1676   1.424       .  A
C1675      C1680   1.404   1_554  A
C1675      H1682   1.082       .  S
C1677      C1678   1.392       .  A
C1677      F1684   1.355       .  S
C1678      C1679   1.404       .  A
C1678      H1683   1.084       .  S
C1680      F1681   1.356       .  S
C1685      C1686   1.412       .  A
C1685      C1690   1.391       .  A
C1686      C1687   1.424       .  A
C1687      C1688   1.415       .  A
C1687      F1694   1.354       .  S
C1688      C1689   1.403       .  A
C1688      H1693   1.082       .  S
C1689      C1690   1.405       .  A
C1695      C1700   1.400       .  A
C1695      H1702   1.083       .  S
C1696      C1697   1.398       .  A
C1697      C1698   1.401       .  A
C1697      F1704   1.357       .  S
C1698      C1699   1.419       .  A
C1698      H1703   1.084       .  S
C1700      F1701   1.354       .  S
C1705      C1706   1.406       .  A
C1705      C1710   1.420       .  A
C1705      H1712   1.082       .  S
C1706      C1707   1.424       .  A
C1707      C1708   1.383       .  A
C1707      F1714   1.359       .  S
C1708      C1709   1.390       .  A
C1708      H1713   1.084       .  S
C1709      C1710   1.422       .  A
C1715      C1716   1.404       .  A
C1715      C1720   1.397       .  A
C1716      C1717   1.401       .  A
C1717      C1718   1.412       .  A
C1717      F1724   1.356       .  S
C1718      C1719   1.423       .  A
C1718      H1723   1.082       .  S
C1719      C1720   1.415       .  A
C1725      C1730   1.421       .  A
C1725      H1732   1.083       .  S
C1726      C1727   1.406       .  A
C1727      C1728   1.391       .  A
C1727      F1734   1.358       .  S
C1728      H1733   1.075       .  S
C1729      C1730   1.419   1_554  A
C1730      F1731   1.353       .  S
C1735      C1736   1.422   1_556  A
C1735      C1740   1.401       .  A
C1735      H1742   1.083       .  S
C1736      C1737   1.407       .  A
C1737      F1744   1.354       .  S
C1738      C1739   1.413       .  A
C1738      H1743   1.083       .  S
C1740      F1741   1.357       .  S
C1745      C1746   1.411       .  A
C1745      C1750   1.402       .  A
C1745      H1752   1.084       .  S
C1746      C1747   1.396       .  A
C1747      C1748   1.401       .  A
C1747      F1754   1.357       .  S
C1748      C1749   1.422       .  A
C1748      H1753   1.083       .  S
C1749      C1750   1.408       .  A
C1750      F1751   1.354       .  S
C1755      C1756   1.404       .  A
C1755      C1760   1.396       .  A
C1755      H1762   1.083       .  S
C1756      C1757   1.427       .  A
C1757      C1758   1.413       .  A
C1757      F1764   1.357       .  S
C1758      C1759   1.397       .  A
C1758      H1763   1.080       .  S
C1759      C1760   1.410       .  A
C1760      F1761   1.353       .  S
C1765      C1766   1.405       .  A
C1765      C1770   1.416       .  A
C1765      H1772   1.082       .  S
C1766      C1767   1.425       .  A
C1767      C1768   1.381       .  A
C1767      F1774   1.357       .  S
C1768      C1769   1.386       .  A
C1768      H1773   1.085       .  S
C1769      C1770   1.419       .  A
C1770      F1771   1.357       .  S
C1775      C1776   1.405       .  A
C1775      C1780   1.394       .  A
C1775      H1782   1.084       .  S
C1776      C1777   1.397       .  A
C1777      C1778   1.406       .  A
C1777      F1784   1.357       .  S
C1778      C1779   1.423       .  A
C1778      H1783   1.082       .  S
C1779      C1780   1.412       .  A
C1780      F1781   1.355       .  S
C1785      C1786   1.412       .  A
C1785      C1790   1.403       .  A
C1785      H1792   1.083       .  S
C1786      C1787   1.400       .  A
C1787      C1788   1.405       .  A
C1787      F1794   1.357       .  S
C1788      C1789   1.422       .  A
C1788      H1793   1.084       .  S
C1789      C1790   1.409       .  A
C1790      F1791   1.353       .  S
C1795      C1796   1.394       .  A
C1795      C1800   1.388       .  A
C1795      H1802   1.081       .  S
C1796      C1797   1.415       .  A
C1797      C1798   1.421       .  A
C1797      F1804   1.347       .  S
C1798      C1799   1.406       .  A
C1798      H1803   1.082       .  S
C1799      C1800   1.426       .  A
C1800      F1801   1.358       .  S
C1805      C1806   1.405       .  A
C1805      C1810   1.397       .  A
C1805      H1812   1.084       .  S
C1806      C1807   1.397       .  A
C1807      C1808   1.410       .  A
C1807      F1814   1.357       .  S
C1808      C1809   1.427       .  A
C1808      H1813   1.082       .  S
C1809      C1810   1.414       .  A
C1815      C1816   1.407       .  A
C1815      C1820   1.421       .  A
C1815      H1822   1.082       .  S
C1816      C1817   1.425       .  A
C1817      C1818   1.385       .  A
C1818      C1819   1.389       .  A
C1818      H1823   1.084       .  S
C1819      C1820   1.421       .  A
C1820      F1821   1.357       .  S
