geometry optimzed in LAMMPS
_audit_creation_date              2020-11-30 
_audit_creation_method            'lammps2cif' 
_symmetry_space_group_name_H-M    'P1' 
_symmetry_Int_Tables_number       1 
_symmetry_cell_setting            triclinic 
loop_ 
_symmetry_equiv_pos_as_xyz 
  x,y,z 
_cell_length_a                    32.03702642717053 
_cell_length_b                    32.07899594090305 
_cell_length_c                    57.35647069298043 
_cell_angle_alpha                 90.46993708001453 
_cell_angle_beta                  92.90388996980758 
_cell_angle_gamma                 120.5071093243747 
loop_ 
_atom_site_label 
_atom_site_type_symbol 
_atom_site_fract_x 
_atom_site_fract_y 
_atom_site_fract_z 
_atom_site_charge 
Zr1        Zr  0.32603036  0.20621805  0.37709649     2.17510
O2          O  0.36242021  0.25843944  0.41212059    -0.50590
O3          O  0.29971025  0.13369135  0.40062058    -0.73800
O4          O  0.27417058  0.22848686  0.39482312    -0.80580
O5          O  0.44180953  0.21001312  0.37579417    -0.82330
O6          O  0.20082127  0.17655753  0.37781368    -0.77950
O7          O  0.41214608  0.25617826  0.38561881    -0.89590
O8          O  0.23717094  0.06798677  0.38188629    -0.75550
O9          O  0.25115674  0.13974021  0.36194083    -0.85040
O10         O  0.34496965  0.14846431  0.36245454    -0.84730
O11         O  0.29528398  0.24147001  0.34924435    -0.71490
O12         O  0.38408651  0.25041703  0.34911417    -0.83620
Zr13       Zr  0.29943202  0.15946866  0.29078493     2.26420
Zr14       Zr  0.21919566  0.17332105  0.33475689     2.06270
Zr15       Zr  0.40520518  0.19330729  0.33543900     2.10050
Zr16       Zr  0.27017150  0.08375841  0.34495293     1.78760
O17         O  0.48579962  0.26362853  0.33240485    -0.92430
O18         O  0.18643003  0.01694556  0.33946386    -0.40240
O19         O  0.33119445  0.12657290  0.31838144    -0.76870
O20         O  0.23820383  0.11639508  0.31776485    -0.95560
O21         O  0.27640745  0.21425292  0.30514253    -0.88860
O22         O  0.37412299  0.22538363  0.30632764    -0.91700
C23         C  0.26295453  0.09000006  0.40019960     1.02050
C24         C  0.43715704  0.23687975  0.39087161     1.14980
C25         C  0.22885787  0.20159169  0.39614035     1.05760
O26         O  0.13377821  0.11314391  0.33739080    -0.93860
O27         O  0.17800864  0.14720266  0.29434784    -0.89600
O28         O  0.21940705  0.12111767  0.27309138    -0.82750
C29         C  0.18405542  0.12797778  0.27566978     1.12400
O30         O  0.37731654  0.35025833  0.34627327    -0.95830
Zr31       Zr  0.35200210  0.28109723  0.31938098     1.88940
O32         O  0.32047073  0.21759563  0.25979349    -0.72480
O33         O  0.19661131  0.23512424  0.33207663    -0.51740
O34         O  0.30485955  0.31764255  0.30614391    -0.96420
O35         O  0.43583551  0.34618033  0.31687883    -0.53640
O36         O  0.36641526  0.29201479  0.27712641    -0.73000
C37         C  0.34996416  0.26352123  0.25870004     0.99350
O38         O  0.28091119  0.08425398  0.27051050    -0.61820
O39         O  0.43652329  0.13853546  0.34003950    -0.56620
O40         O  0.36378911  0.15937773  0.27208193    -0.93300
O41         O  0.42707740  0.17584035  0.29803322    -0.91730
O42         O  0.30738715  0.04099146  0.36253879    -0.92080
O43         O  0.26097551  0.01964633  0.31823326    -0.90870
C44         C  0.40548997  0.16510303  0.27752021     1.18190
H45         H  0.35796911  0.13634060  0.37431818     0.34130
H46         H  0.20914712  0.08895959  0.31066108     0.44990
H47         H  0.39745397  0.24013420  0.29460519     0.38510
H48         H  0.28982597  0.26525714  0.35668379     0.34990
H49         H  0.18419241  0.99242759  0.35051109     0.26780
H50         H  0.16077412  0.21663827  0.32966896     0.32720
H51         H  0.32825331  0.34749893  0.29856518     0.38630
H52         H  0.28033752  0.00706510  0.36293900     0.33090
H53         H  0.47011537  0.15910157  0.34689982     0.31960
H54         H  0.50759474  0.25017910  0.33220896     0.33650
H55         H  0.43440462  0.36747686  0.30485568     0.32610
H56         H  0.23426615  0.01341762  0.30667115     0.36610
H57         H  0.30050519  0.07258187  0.27896587     0.29340
H58         H  0.33592625  0.24998825  0.42241258     0.33580
H59         H  0.38012665  0.37673938  0.33648633     0.36430
H60         H  0.41849127  0.11748325  0.35280246     0.29040
H61         H  0.24708802  0.06029872  0.27383090     0.41910
H62         H  0.13382135  0.08955270  0.34840102     0.31960
H63         H  0.16673742  0.02947366  0.34602929     0.39580
H64         H  0.45208506  0.33067067  0.30948014     0.31430
H65         H  0.20298611  0.24954045  0.34811981     0.31500
H66         H  0.37121099  0.29133533  0.40721653     0.31760
C67         C  0.22090867  0.36155520  0.17220282     0.03020
C68         C  0.22415690  0.40894619  0.17670443     0.03020
C69         C  0.17756944  0.40917012  0.17518339     0.03020
C70         C  0.13037999  0.36399309  0.17213067     0.03020
C71         C  0.12899859  0.31822544  0.17218053     0.03020
C72         C  0.17352561  0.31688429  0.17194709     0.03020
C73         C  0.17093223  0.09600733  0.17853848     0.01300
C74         C  0.17457970  0.12868563  0.16070413     0.01300
C75         C  0.42561262  0.34007162  0.16607109     0.01300
C76         C  0.39549284  0.34532512  0.14827787     0.01300
C77         C  0.40964218  0.10399703  0.18481494     0.01300
C78         C  0.44178580  0.12595707  0.16690946     0.01300
C79         C  0.47865786  0.24127952  0.49066075     0.01300
C80         C  0.48181425  0.27633014  0.50790797     0.01300
C81         C  0.24779514  0.00629047  0.49068077     0.01300
C82         C  0.21035927  0.49720341  0.50560640     0.01300
C83         C  0.02412346  0.00124920  0.49003328     0.03020
C84         C  0.47637975  0.45635358  0.49205799     0.03020
C85         C  0.43147345  0.45734832  0.49435534     0.03020
C86         C  0.43298878  0.00334267  0.49599054     0.03020
C87         C  0.47891825  0.04876941  0.49490282     0.03020
C88         C  0.02458507  0.04797071  0.49265844     0.03020
C89         C  0.23068989  0.27027087  0.49098452     0.01300
C90         C  0.20067506  0.24303748  0.50939571     0.01300
Zr91       Zr  0.47698440  0.02903596  0.96168466     2.17510
O92         O  0.43261816  0.06793867  0.94920433    -0.50590
O93         O  0.00720090  0.00670094  0.92974216    -0.73800
O94         O  0.02854935  0.09949726  0.94332104    -0.80580
O95         O  0.35464296  0.43048446  0.95588942    -0.82330
O96         O  0.08421269  0.15109926  0.97130897    -0.77950
O97         O  0.41683159  0.97823249  0.93384940    -0.89590
O98         O  0.03494971  0.95884968  0.94261456    -0.75550
O99         O  0.05380461  0.04359960  0.97532362    -0.85040
O100        O  0.45834354  0.44983614  0.96987856    -0.84730
O101        O  0.99999833  0.08941135  0.99162135    -0.71490
O102        O  0.41037933  0.00203025  0.98541042    -0.83620
Zr103      Zr  0.99611335  0.99422349  0.04309624     2.26420
Zr104      Zr  0.07609697  0.10173894  0.00675623     2.06270
Zr105      Zr  0.39363811  0.42354545  0.99521228     2.10050
Zr106      Zr  0.03508896  0.96428524  0.98518110     1.78760
O107        O  0.30713889  0.38736280  0.00012089    -0.92430
O108        O  0.11938853  0.99758884  0.97593662    -0.40240
O109        O  0.47078877  0.43585908  0.01130569    -0.76870
O110        O  0.06037357  0.02276080  0.01709362    -0.95560
O111        O  0.01200507  0.07234078  0.03326890    -0.88860
O112        O  0.41912958  0.98115880  0.02800399    -0.91700
C113        C  0.02400708  0.97895247  0.92602625     1.02050
C114        C  0.37185256  0.45180066  0.93630171     1.14980
C115        C  0.06213503  0.14118799  0.95057566     1.05760
O116        O  0.15738746  0.12290763  0.99685299    -0.93860
O117        O  0.11694027  0.11435876  0.04643817    -0.89600
O118        O  0.07201104  0.04437271  0.06515667    -0.82750
C119        C  0.10844614  0.08725512  0.06424043     1.12400
O120        O  0.40211197  0.09906673  0.99293309    -0.95830
Zr121      Zr  0.43566680  0.05969917  0.01729083     1.88940
O122        O  0.45611823  0.01873929  0.07086029    -0.72480
O123        O  0.10683569  0.18452261  0.02113571    -0.51740
O124        O  0.97387067  0.14519557  0.02899733    -0.96420
O125        O  0.34854266  0.02416372  0.02053943    -0.53640
O126        O  0.42507563  0.06387174  0.05767192    -0.73000
C127        C  0.43602458  0.04425333  0.07407620     0.99350
O128        O  0.03168425  0.46803622  0.07422644    -0.61820
O129        O  0.37318952  0.34391127  0.97996542    -0.56620
O130        O  0.45290651  0.40739875  0.04504737    -0.93300
O131        O  0.37633598  0.38288681  0.03376949    -0.91730
O132        O  0.00607394  0.37911170  0.97656887    -0.92080
O133        O  0.07015500  0.43089000  0.01257777    -0.90870
C134        C  0.40823977  0.38414865  0.04896760     1.18190
H135        H  0.44750338  0.42874282  0.95604333     0.34130
H136        H  0.08922543  0.02569911  0.02488671     0.44990
H137        H  0.39490060  0.96838557  0.03941382     0.38510
H138        H  0.00422253  0.11949947  0.98604103     0.34990
H139        H  0.11941882  0.97142483  0.96666747     0.26780
H140        H  0.13584342  0.20443848  0.01227463     0.32720
H141        H  0.45048613  0.14761822  0.03874321     0.38630
H142        H  0.03497225  0.37840779  0.97177839     0.33090
H143        H  0.36746872  0.34490175  0.96290298     0.31960
H144        H  0.29160922  0.35768258  0.98986239     0.33650
H145        H  0.34519670  0.04863457  0.02955648     0.32610
H146        H  0.10248054  0.45838009  0.01791020     0.36610
H147        H  0.00522387  0.44055981  0.08180986     0.29340
H148        H  0.39911737  0.04741951  0.95407475     0.33580
H149        H  0.39138156  0.11541642  0.00378407     0.36430
H150        H  0.40399830  0.34373635  0.98173439     0.29040
H151        H  0.04798036  0.95347853  0.06599830     0.41910
H152        H  0.15605683  0.12258840  0.97956195     0.31960
H153        H  0.12549225  0.02285964  0.96457614     0.39580
H154        H  0.33908468  0.99717664  0.03124611     0.31430
H155        H  0.08252072  0.19266536  0.01496408     0.31500
H156        H  0.44580288  0.09775344  0.95902773     0.31760
Zr157      Zr  0.13326821  0.34866360  0.70523915     2.17510
O158        O  0.17605684  0.43317482  0.71827882    -0.50590
O159        O  0.10795987  0.29290392  0.73725656    -0.73800
O160        O  0.08889015  0.38113095  0.71837054    -0.80580
O161        O  0.25811860  0.38809633  0.70535426    -0.82330
O162        O  0.01149168  0.33342567  0.70606357    -0.77950
O163        O  0.19850560  0.36373557  0.73049718    -0.89590
O164        O  0.08863845  0.21874553  0.72347694    -0.75550
O165        O  0.05902182  0.27831964  0.69444409    -0.85040
O166        O  0.16131585  0.29709689  0.69366614    -0.84730
O167        O  0.09610539  0.37779148  0.67784714    -0.71490
O168        O  0.19197245  0.39445380  0.67853471    -0.83620
Zr169      Zr  0.10567422  0.29547289  0.62299707     2.26420
Zr170      Zr  0.02271614  0.30643753  0.66569291     2.06270
Zr171      Zr  0.21810115  0.34175894  0.66557524     2.10050
Zr172      Zr  0.08746763  0.22678277  0.68107297     1.78760
O173        O  0.29959089  0.40491449  0.65724625    -0.92430
O174        O  0.00505257  0.16342711  0.68811104    -0.40240
O175        O  0.14400552  0.26935712  0.65159304    -0.76870
O176        O  0.04869642  0.25154424  0.65254308    -0.95560
O177        O  0.07966462  0.34884732  0.63601994    -0.88860
O178        O  0.17865934  0.36619022  0.63675584    -0.91700
C179        C  0.09562430  0.24849877  0.74037772     1.02050
C180        C  0.24265966  0.38822652  0.72620017     1.14980
C181        C  0.04496574  0.36360917  0.72140218     1.05760
O182        O  0.44606661  0.23147462  0.66938294    -0.93860
O183        O  0.99279145  0.29634815  0.62381702    -0.89600
O184        O  0.02089103  0.24938812  0.61347392    -0.82750
C185        C  0.99881839  0.27122179  0.60810150     1.12400
O186        O  0.18189531  0.49277809  0.67437097    -0.95830
Zr187      Zr  0.15308506  0.41935724  0.65001585     1.88940
O188        O  0.12111782  0.35379910  0.59202550    -0.72480
O189        O  0.97410030  0.34503972  0.66152828    -0.51740
O190        O  0.10382560  0.45642652  0.64235022    -0.96420
O191        O  0.23583775  0.48301800  0.64352264    -0.53640
O192        O  0.15101007  0.42827124  0.60939576    -0.73000
C193        C  0.13981420  0.40016475  0.59156886     0.99350
O194        O  0.08799597  0.22750874  0.59642896    -0.61820
O195        O  0.25236037  0.29212239  0.67749302    -0.56620
O196        O  0.16713362  0.29824677  0.60076055    -0.93300
O197        O  0.23443605  0.32173040  0.62519333    -0.91730
O198        O  0.12934754  0.18302254  0.69062065    -0.92080
O199        O  0.06387581  0.15923702  0.65339063    -0.90870
C200        C  0.21049066  0.30747590  0.60480642     1.18190
H201        H  0.17673240  0.28952652  0.70650406     0.34130
H202        H  0.02011468  0.22076132  0.64804087     0.44990
H203        H  0.19963476  0.38089020  0.62419295     0.38510
H204        H  0.08834389  0.40213819  0.68219866     0.34990
H205        H  0.00914407  0.13974712  0.69742687     0.26780
H206        H  0.94709819  0.32736986  0.67185863     0.32720
H207        H  0.12451521  0.48573293  0.63367096     0.38630
H208        H  0.10401596  0.15186785  0.69649424     0.33090
H209        H  0.26003026  0.29904391  0.69452371     0.31960
H210        H  0.32066935  0.39218644  0.66267219     0.33650
H211        H  0.23483196  0.49331816  0.62738744     0.32610
H212        H  0.03696552  0.15711103  0.64317552     0.36610
H213        H  0.10334797  0.21096770  0.60444837     0.29340
H214        H  0.16047807  0.44987323  0.71073340     0.33580
H215        H  0.19075881  0.51952693  0.66356126     0.36430
H216        H  0.22450005  0.25849981  0.67612082     0.29040
H217        H  0.05298562  0.20353930  0.59657894     0.41910
H218        H  0.44276816  0.22828987  0.68644485     0.31960
H219        H  0.99352625  0.17862232  0.69920992     0.39580
H220        H  0.25464483  0.46633500  0.64297752     0.31430
H221        H  0.99446021  0.37753269  0.66924579     0.31500
H222        H  0.20783642  0.44805959  0.71123994     0.31760
C223        C  0.31079467  0.42109023  0.83987299     0.01300
C224        C  0.31000262  0.45272690  0.82270336     0.01300
C225        C  0.27420230  0.19155399  0.83779463     0.03020
C226        C  0.31837768  0.23655183  0.83217817     0.03020
C227        C  0.36462716  0.23859735  0.82767558     0.03020
C228        C  0.36632275  0.19351608  0.82999485     0.03020
C229        C  0.31984738  0.14764239  0.83110482     0.03020
C230        C  0.27398781  0.14653297  0.83417293     0.03020
C231        C  0.08776179  0.18877040  0.85699197     0.01300
C232        C  0.05854126  0.19234424  0.83828442     0.01300
C233        C  0.07315458  0.46692965  0.83022621     0.01300
C234        C  0.04105578  0.43430425  0.81238006     0.01300
C235        C  0.41604699  0.19339636  0.83261044    -0.04600
C236        C  0.42913399  0.16776126  0.81678042    -0.01720
C237        C  0.47042084  0.16204803  0.82140752     0.03270
C238        C  0.50771197  0.18998368  0.83912786    -0.04600
C239        C  0.49717355  0.21928071  0.85395067    -0.01710
C240        C  0.45093794  0.21731402  0.85189860     0.03270
C241        C  0.40577625  0.15278035  0.79363152     0.37920
C242        C  0.53259749  0.25044873  0.87224905     0.37910
C243        C  0.43882688  0.23747699  0.87113699     0.36330
C244        C  0.47415126  0.12624574  0.80743873     0.36330
N245        N  0.43150038  0.25231674  0.88788011    -0.38490
N246        N  0.47651901  0.09732588  0.79632236    -0.38490
N247        N  0.06018922  0.27563666  0.88703395    -0.37930
N248        N  0.39164793  0.14234302  0.77426475    -0.37940
C249        C  0.22664000  0.19058809  0.84585675    -0.04600
C250        C  0.19210964  0.15556270  0.86047512    -0.01720
C251        C  0.14592054  0.15275074  0.86320178     0.03270
C252        C  0.13560184  0.18794563  0.85306589    -0.04600
C253        C  0.17699062  0.22817304  0.84433140    -0.01710
C254        C  0.22295662  0.23227681  0.84804308     0.03270
C255        C  0.21303710  0.14588637  0.88114006     0.37920
C256        C  0.17736627  0.27201414  0.83974917     0.37910
C257        C  0.24880087  0.26031690  0.86933436     0.36330
C258        C  0.11655058  0.12237918  0.88116272     0.36330
N259        N  0.26852991  0.27996241  0.88698599    -0.38490
N260        N  0.09774367  0.10131335  0.89734077    -0.38490
N261        N  0.18059964  0.30892111  0.83662100    -0.37930
N262        N  0.22911545  0.14207957  0.89896959    -0.37940
C263        C  0.22413398  0.09811104  0.83186280    -0.04600
C264        C  0.18969432  0.08883724  0.81292986    -0.01720
C265        C  0.14077023  0.04815580  0.81210645     0.03270
C266        C  0.12590026  0.01115927  0.82876392    -0.04600
C267        C  0.16300078  0.01782510  0.84589012    -0.01710
C268        C  0.20884408  0.06170006  0.84862068     0.03270
C269        C  0.20512618  0.11951871  0.79311748     0.37920
C270        C  0.15670894  0.97831865  0.86020575     0.37910
C271        C  0.23689506  0.06978355  0.87042147     0.36330
C272        C  0.10826308  0.04355502  0.79250289     0.36330
N273        N  0.25504556  0.07359917  0.88889785    -0.38490
N274        N  0.08519521  0.04353592  0.77632172    -0.38490
N275        N  0.15501241  0.44846050  0.87198363    -0.37930
N276        N  0.21616779  0.14154870  0.77641064    -0.37940
C277        C  0.49721322  0.38422461  0.81804713    -0.04600
C278        C  0.49692221  0.34085795  0.81268188    -0.01720
C279        C  0.45360733  0.29382026  0.81259685     0.03270
C280        C  0.41117054  0.28885235  0.82185504    -0.04600
C281        C  0.41015113  0.33214509  0.81828853    -0.01710
C282        C  0.45238259  0.37734605  0.82375596     0.03270
C283        C  0.54255008  0.34686737  0.80782515     0.37920
C284        C  0.38693217  0.33242061  0.79602964     0.37910
C285        C  0.44805367  0.41643197  0.83271210     0.36330
C286        C  0.44326174  0.26410120  0.79185166     0.36330
N287        N  0.44375946  0.44751325  0.84011897    -0.38490
N288        N  0.43178686  0.24329871  0.77395129    -0.38490
N289        N  0.37011430  0.33281742  0.77775805    -0.37930
N290        N  0.08267036  0.35995298  0.80514561    -0.37940
C291        C  0.31895450  0.09935650  0.82941535    -0.04600
C292        C  0.30962631  0.07313664  0.80817213    -0.01720
C293        C  0.32005848  0.03487613  0.80684594     0.03270
C294        C  0.31482523  0.00514436  0.82663104    -0.04600
C295        C  0.31316381  0.02833674  0.84811212    -0.01710
C296        C  0.32778446  0.07859348  0.84907498     0.03270
C297        C  0.29421562  0.08829007  0.78741545     0.37920
C298        C  0.28444902  0.00257196  0.86714109     0.37910
C299        C  0.34709689  0.10760356  0.87059580     0.36330
C300        C  0.34382715  0.03322427  0.78633970     0.36330
N301        N  0.36234551  0.13230213  0.88737036    -0.38490
N302        N  0.36357326  0.03347799  0.76993810    -0.38490
N303        N  0.26213501  0.48661046  0.88332775    -0.37930
N304        N  0.28261417  0.10105723  0.77080601    -0.37940
C305        C  0.31334938  0.37333226  0.83599075    -0.04600
C306        C  0.34186307  0.36191929  0.85252980    -0.01720
C307        C  0.34164435  0.31759070  0.85133076     0.03270
C308        C  0.31719940  0.28356833  0.83280207    -0.04600
C309        C  0.29130296  0.29443703  0.81558291    -0.01710
C310        C  0.28631755  0.33616987  0.81789449     0.03270
C311        C  0.37388427  0.39412779  0.87158337     0.37920
C312        C  0.26895502  0.26222282  0.79513356     0.37910
C313        C  0.24824994  0.33467660  0.80259112     0.36330
C314        C  0.36406148  0.30529947  0.87067067     0.36330
N315        N  0.21623472  0.32853417  0.78983777    -0.38490
N316        N  0.38027954  0.29737850  0.88730501    -0.38490
N317        N  0.25159859  0.23928641  0.77799152    -0.37930
N318        N  0.40157676  0.41640291  0.88694433    -0.37940
C319        C  0.27283485  0.41752022  0.74781552    -0.04600
C320        C  0.25049278  0.43478998  0.76300571    -0.01720
C321        C  0.25500456  0.43182874  0.78722360     0.03270
C322        C  0.29678455  0.43460574  0.79731621    -0.04600
C323        C  0.32612287  0.42693811  0.78208258    -0.01710
C324        C  0.31112735  0.41305127  0.75798681     0.03270
C325        C  0.23945866  0.47093910  0.75545886     0.37920
C326        C  0.37205880  0.43556396  0.79057098     0.37910
C327        C  0.33470172  0.39467904  0.74381318     0.36330
C328        C  0.21767739  0.42628806  0.80227311     0.36330
N329        N  0.35269394  0.37941839  0.73218613    -0.38490
N330        N  0.18940459  0.41965354  0.81572317    -0.38490
N331        N  0.41032184  0.44422308  0.79658571    -0.37930
N332        N  0.23263918  0.50193665  0.75040746    -0.37940
C333        C  0.08838335  0.23172836  0.76525684    -0.04600
C334        C  0.07388349  0.25460154  0.78124204    -0.01720
C335        C  0.07574990  0.24736894  0.80528978     0.03270
C336        C  0.07757766  0.20767967  0.81374725    -0.04600
C337        C  0.09039774  0.18271556  0.79773083    -0.01710
C338        C  0.09793822  0.19599975  0.77390860     0.03270
C339        C  0.04732257  0.27635846  0.77203475     0.37920
C340        C  0.10210143  0.14814033  0.80604543     0.37910
C341        C  0.11538489  0.17285099  0.75856334     0.36330
C342        C  0.08487779  0.28405611  0.82251252     0.36330
N343        N  0.12937240  0.15423216  0.74642264    -0.38490
N344        N  0.09635924  0.31162095  0.83805692    -0.38490
N345        N  0.11585347  0.12374608  0.81332796    -0.37930
N346        N  0.02566473  0.29142192  0.76232755    -0.37940
C347        C  0.04027109  0.38391391  0.74434115    -0.04600
C348        C  0.00589005  0.39759372  0.74833165    -0.01720
C349        C  0.01100236  0.42497542  0.76920825     0.03270
C350        C  0.05003799  0.43802356  0.78635098    -0.04600
C351        C  0.08944169  0.43565918  0.77868101    -0.01710
C352        C  0.08177395  0.40290230  0.76066645     0.03270
C353        C  0.96853061  0.38762961  0.73023921     0.37920
C354        C  0.13865394  0.46622639  0.78829466     0.37910
C355        C  0.11653641  0.38653891  0.76080977     0.36330
C356        C  0.98959819  0.45502728  0.76838609     0.36330
N357        N  0.14405552  0.37352736  0.76271009    -0.38490
N358        N  0.97652683  0.48234775  0.76549545    -0.38490
N359        N  0.17926878  0.49150711  0.79398900    -0.37930
N360        N  0.93920478  0.37983642  0.71549180    -0.37940
C361        C  0.31684384  0.43583215  0.86527735    -0.04600
C362        C  0.35995848  0.47654853  0.87396649    -0.01720
C363        C  0.36725346  0.48682062  0.89800879     0.03270
C364        C  0.34289901  0.44953439  0.91403740    -0.04600
C365        C  0.29773621  0.41021826  0.90584700    -0.01710
C366        C  0.28271483  0.40667176  0.88159437     0.03270
C367        C  0.39660321  0.00674746  0.85820143     0.37920
C368        C  0.26631133  0.37693983  0.92243950     0.37910
C369        C  0.23214453  0.38718856  0.87476870     0.36330
C370        C  0.38475347  0.03605594  0.90518901     0.36330
N371        N  0.19200442  0.37561877  0.87021339    -0.38490
N372        N  0.39501683  0.07535377  0.90977122    -0.38490
N373        N  0.24180092  0.35087213  0.93613688    -0.37930
N374        N  0.42444131  0.02886096  0.84464674    -0.37940
C375        C  0.07903636  0.18970107  0.88319870    -0.04600
C376        C  0.03345836  0.16537018  0.89332127    -0.01720
C377        C  0.03197837  0.16926606  0.91772070     0.03270
C378        C  0.07221204  0.17727202  0.93246034    -0.04600
C379        C  0.11750012  0.20271006  0.92333583    -0.01710
C380        C  0.11990820  0.21484707  0.89967003     0.03270
C381        C  0.98809306  0.13646887  0.88005628     0.37920
C382        C  0.16112473  0.21684480  0.93799442     0.37910
C383        C  0.16096426  0.25900945  0.89402159     0.36330
C384        C  0.49103077  0.16831669  0.92772437     0.36330
N385        N  0.19367932  0.29653450  0.89120296    -0.38490
N386        N  0.45936788  0.17037285  0.93539806    -0.38490
N387        N  0.19605372  0.22805870  0.94963660    -0.37930
N388        N  0.45064735  0.11400546  0.87003959    -0.37940
C389        C  0.03111669  0.97074559  0.90093754    -0.04600
C390        C  0.02566412  0.99830186  0.88299452    -0.01720
C391        C  0.04198011  0.49861597  0.86066754     0.03270
C392        C  0.05427213  0.46407530  0.85409643    -0.04600
C393        C  0.04940953  0.42934288  0.87052282    -0.01710
C394        C  0.04184600  0.43489031  0.89414403     0.03270
C395        C  0.50154489  0.02525045  0.88691817     0.37920
C396        C  0.05113344  0.38705344  0.86374228     0.37910
C397        C  0.04382458  0.40222505  0.91095039     0.36330
C398        C  0.53844167  0.02955681  0.84333018     0.36330
N399        N  0.04588606  0.37596547  0.92403827    -0.38490
N400        N  0.53142208  0.05196593  0.82969099    -0.38490
N401        N  0.05108688  0.35168350  0.86001672    -0.37930
N402        N  0.48304443  0.04696883  0.89125689    -0.37940
C403        C  0.22886669  0.29560769  0.58365468    -0.04600
C404        C  0.23963853  0.32666512  0.56476497    -0.01720
C405        C  0.22287295  0.30815954  0.54133879     0.03270
C406        C  0.20536483  0.25967927  0.53549280    -0.04600
C407        C  0.18883448  0.22818341  0.55481819    -0.01710
C408        C  0.20707150  0.24594721  0.57799862     0.03270
C409        C  0.28026712  0.37454618  0.56902855     0.37920
C410        C  0.14067562  0.18597008  0.55368103     0.37910
C411        C  0.19500245  0.21232219  0.59680872     0.36330
C412        C  0.20814326  0.33186107  0.52444365     0.36330
N413        N  0.18518135  0.18554030  0.61177808    -0.38490
N414        N  0.19280918  0.34558217  0.50962054    -0.38490
N415        N  0.10165323  0.15334425  0.55435303    -0.37930
N416        N  0.31451745  0.41198264  0.57329288    -0.37940
C417        C  0.07308887  0.09714193  0.49547603    -0.04600
C418        C  0.08145376  0.13802809  0.48252319    -0.01720
C419        C  0.11650262  0.18469175  0.49104668     0.03270
C420        C  0.15837122  0.19193025  0.50342927    -0.04600
C421        C  0.15741504  0.15038701  0.51201167    -0.01710
C422        C  0.11190711  0.10567058  0.51192631     0.03270
C423        C  0.07327276  0.13375973  0.45748891     0.37920
C424        C  0.20133033  0.15763321  0.52406619     0.37910
C425        C  0.10426586  0.07032330  0.52918877     0.36330
C426        C  0.10605263  0.22325935  0.49029561     0.36330
N427        N  0.09643076  0.04160879  0.54299970    -0.38490
N428        N  0.09810333  0.25456642  0.49109912    -0.38490
N429        N  0.23880823  0.16909381  0.53323255    -0.37930
N430        N  0.06993183  0.13275758  0.43726592    -0.37940
C431        C  0.38100127  0.40873708  0.49406316    -0.04600
C432        C  0.35890440  0.38408501  0.51445052    -0.01720
C433        C  0.31528877  0.33705404  0.51319156     0.03270
C434        C  0.28245390  0.31947687  0.49277096    -0.04600
C435        C  0.30421020  0.34702743  0.47243804    -0.01710
C436        C  0.35374330  0.38589623  0.47293796     0.03270
C437        C  0.38061487  0.40626554  0.53710429     0.37920
C438        C  0.27838908  0.33777450  0.44981043     0.37910
C439        C  0.37538229  0.40203822  0.45082796     0.36330
C440        C  0.31045296  0.30469594  0.53158041     0.36330
N441        N  0.38834124  0.41230914  0.43216689    -0.38490
N442        N  0.30769142  0.27933904  0.54641176    -0.38490
N443        N  0.26293091  0.33479777  0.43077830    -0.37930
N444        N  0.39707059  0.42337643  0.55552983    -0.37940
C445        C  0.15886468  0.42566852  0.56986775    -0.04600
C446        C  0.20037198  0.42702578  0.56246416    -0.01720
C447        C  0.21825234  0.44674416  0.54085808     0.03270
C448        C  0.20648962  0.48063113  0.53100303    -0.04600
C449        C  0.18184288  0.49520237  0.54595641    -0.01710
C450        C  0.15426112  0.46555580  0.56377414     0.03270
C451        C  0.23524474  0.43288716  0.58118887     0.37920
C452        C  0.19568105  0.54512186  0.54762731     0.37910
C453        C  0.12556520  0.47942080  0.57712465     0.36330
C454        C  0.25363511  0.43655934  0.53260404     0.36330
N455        N  0.10323418  0.49145868  0.58755243    -0.38490
N456        N  0.28248216  0.42723432  0.52735670    -0.38490
N457        N  0.20782833  0.58488241  0.55203453    -0.37930
N458        N  0.26211468  0.44125389  0.59721177    -0.37940
C459        C  0.29130964  0.49898709  0.49612721    -0.04600
C460        C  0.30215995  0.47368178  0.47918950    -0.01720
C461        C  0.35052150  0.48459605  0.47740177     0.03270
C462        C  0.38451206  0.00300275  0.49680223    -0.04600
C463        C  0.36969728  0.01850076  0.51654079    -0.01710
C464        C  0.32791240  0.02420000  0.51453911     0.03270
C465        C  0.26565374  0.44094166  0.46168389     0.37920
C466        C  0.39059486  0.01993006  0.53960204     0.37910
C467        C  0.31945458  0.04959417  0.53295687     0.36330
C468        C  0.36710513  0.48763272  0.45433347     0.36330
N469        N  0.31218479  0.06896370  0.54796224    -0.38490
N470        N  0.37899344  0.49131593  0.43542870    -0.38490
N471        N  0.40449383  0.01929224  0.55853713    -0.37930
N472        N  0.23761423  0.41433392  0.44745598    -0.37940
C473        C  0.16407442  0.49890090  0.49699934    -0.04600
C474        C  0.16420437  0.04068440  0.48933179    -0.01720
C475        C  0.11986794  0.03913475  0.48174619     0.03270
C476        C  0.07329122  0.99921556  0.48701828    -0.04600
C477        C  0.07570732  0.45590382  0.48660387    -0.01710
C478        C  0.11810754  0.45626013  0.49603364     0.03270
C479        C  0.21029409  0.08437529  0.48825426     0.37920
C480        C  0.06317693  0.43211646  0.46383146     0.37910
C481        C  0.11659408  0.41147874  0.50121155     0.36330
C482        C  0.12313983  0.06801389  0.46206196     0.36330
N483        N  0.11801472  0.37815577  0.50772460    -0.38490
N484        N  0.12901465  0.08996359  0.44542776    -0.38490
N485        N  0.55710847  0.41536732  0.44514483    -0.37930
N486        N  0.24872168  0.11775753  0.48780454    -0.37940
C487        C  0.99118595  0.27376804  0.58247929    -0.04600
C488        C  0.01064795  0.31929134  0.57264032    -0.01720
C489        C  0.02055112  0.32420151  0.54865833     0.03270
C490        C  0.50436627  0.28228783  0.53348609    -0.04600
C491        C  0.50184323  0.24342444  0.54533454    -0.01710
C492        C  0.98451648  0.23469089  0.56789858     0.03270
C493        C  0.01894675  0.36069793  0.58694632     0.37920
C494        C  0.54070455  0.23410856  0.54190864     0.37910
C495        C  0.96497769  0.18657810  0.57682528     0.37140
C496        C  0.04615868  0.37263288  0.54073906     0.36330
N497        N  0.44864234  0.14829391  0.58419466    -0.38490
N498        N  0.06422502  0.41309182  0.53672077    -0.38490
N499        N  0.57263035  0.22752172  0.53987370    -0.37930
N500        N  0.02438010  0.39298215  0.59852940    -0.37940
C501        C  0.48151475  0.19265239  0.49302510    -0.04600
C502        C  0.46222479  0.15976263  0.51143063    -0.01720
C503        C  0.47206063  0.12078467  0.51416833     0.03270
C504        C  0.47786903  0.09742074  0.49440963    -0.04600
C505        C  0.48030074  0.12097129  0.47337795    -0.01710
C506        C  0.49208620  0.17063215  0.47359839     0.03270
C507        C  0.42345292  0.15848297  0.52372606     0.37920
C508        C  0.97059162  0.09490339  0.45117772     0.37910
C509        C  0.01706179  0.19714927  0.45360395     0.36330
C510        C  0.48417088  0.11131222  0.53723290     0.36330
N511        N  0.03793636  0.21585519  0.43735686    -0.38490
N512        N  0.49591159  0.10521853  0.55569374    -0.38490
N513        N  0.96459567  0.07649682  0.43290696    -0.37930
N514        N  0.39248156  0.15916158  0.53292447    -0.37940
C515        C  0.46364642  0.31368832  0.50231428    -0.04600
C516        C  0.45267039  0.33756247  0.51992404    -0.01720
C517        C  0.46498178  0.38664932  0.51735414     0.03270
C518        C  0.47155827  0.40656084  0.49498091    -0.04600
C519        C  0.46222654  0.37364102  0.47598593    -0.01710
C520        C  0.45365208  0.32624899  0.47997586     0.03270
C521        C  0.42565414  0.31112429  0.53946265     0.37920
C522        C  0.46002188  0.38614102  0.45197432     0.37910
C523        C  0.40824499  0.29063913  0.46879745     0.36330
C524        C  0.47868662  0.41832287  0.53793161     0.36330
N525        N  0.36994611  0.26375480  0.46079132    -0.38490
N526        N  0.49256284  0.44434279  0.55426550    -0.38490
N527        N  0.46106250  0.39426797  0.43231580    -0.37930
N528        N  0.40397595  0.28966229  0.55501021    -0.37940
C529        C  0.43411423  0.09823236  0.14349254    -0.04600
C530        C  0.39200127  0.08001848  0.12765144    -0.01720
C531        C  0.39166501  0.06243417  0.10473025     0.03270
C532        C  0.42956789  0.05538367  0.09857699    -0.04600
C533        C  0.96586131  0.06455124  0.11568163    -0.01710
C534        C  0.47257066  0.09290304  0.13573715     0.03270
C535        C  0.34846205  0.07875768  0.13345346     0.37920
C536        C  0.99496333  0.04295121  0.11233247     0.37910
C537        C  0.02190984  0.12607120  0.14388268     0.36330
C538        C  0.35080949  0.04877856  0.08801175     0.36330
N539        N  0.06147172  0.15625720  0.14873121    -0.38490
N540        N  0.31786530  0.03789851  0.07494674    -0.38490
N541        N  0.01486421  0.02309696  0.10700743    -0.37930
N542        N  0.30994479  0.07186504  0.13571904    -0.37940
C543        C  0.40306140  0.34924693  0.12213024    -0.04600
C544        C  0.42876465  0.39526944  0.11346192    -0.01720
C545        C  0.41559335  0.40424865  0.09096122     0.03270
C546        C  0.39738898  0.36768323  0.07351810    -0.04600
C547        C  0.37790456  0.31974811  0.08063185    -0.01710
C548        C  0.37636335  0.31038727  0.10511441     0.03270
C549        C  0.47052983  0.43081940  0.12760076     0.37920
C550        C  0.35958373  0.28082978  0.06306479     0.37910
C551        C  0.35627632  0.26113411  0.11172235     0.36330
C552        C  0.39024113  0.43049364  0.08938979     0.36330
N553        N  0.34184864  0.22083804  0.11513078    -0.38490
N554        N  0.36517079  0.94666291  0.08769177    -0.38490
N555        N  0.34515057  0.24972157  0.04901978    -0.37930
N556        N  0.50319562  0.45582756  0.14038900    -0.37940
C557        C  0.16167691  0.11093682  0.13570177    -0.04600
C558        C  0.19332997  0.11239151  0.11900171    -0.01720
C559        C  0.17813293  0.10552955  0.09466411     0.03270
C560        C  0.13582297  0.10679069  0.08730193    -0.04600
C561        C  0.10884534  0.11158430  0.10452180    -0.01710
C562        C  0.11666993  0.10297423  0.12783024     0.03270
C563        C  0.24102177  0.12347045  0.12694712     0.37920
C564        C  0.07901660  0.13223762  0.09828393     0.37910
C565        C  0.07883387  0.07836480  0.14382728     0.36330
C566        C  0.20703357  0.10072362  0.07748786     0.36330
N567        N  0.05066590  0.05624216  0.15724860    -0.38490
N568        N  0.23025880  0.09704342  0.06371147    -0.38490
N569        N  0.05667625  0.15007976  0.09263558    -0.37930
N570        N  0.27954219  0.13431052  0.13417521    -0.37940
C571        C  0.16962541  0.26722284  0.16844366    -0.04600
C572        C  0.18075881  0.25407417  0.14715772    -0.01720
C573        C  0.18733784  0.21324434  0.14537388     0.03270
C574        C  0.17259322  0.17734627  0.16335717    -0.04600
C575        C  0.14876974  0.18616310  0.18137688    -0.01710
C576        C  0.15645507  0.23296128  0.18614002     0.03270
C577        C  0.18903972  0.28480964  0.12737438     0.37920
C578        C  0.10747722  0.14664774  0.19140222     0.37910
C579        C  0.15782799  0.24648581  0.21027800     0.36330
C580        C  0.21036944  0.21144649  0.12458223     0.36330
N581        N  0.16138659  0.25646650  0.22999512    -0.38490
N582        N  0.23004816  0.21421256  0.10777181    -0.38490
N583        N  0.07388872  0.11434045  0.19883773    -0.37930
N584        N  0.19594355  0.30914238  0.11154511    -0.37940
C585        C  0.17675988  0.45689424  0.17537940    -0.04600
C586        C  0.17815748  0.48145292  0.19619309    -0.01720
C587        C  0.18771617  0.52987547  0.19552373     0.03270
C588        C  0.17393792  0.04784154  0.17544883    -0.04600
C589        C  0.16212677  0.01642703  0.15493934    -0.01710
C590        C  0.17377980  0.47881025  0.15458131     0.03270
C591        C  0.17551931  0.46045745  0.21867158     0.37920
C592        C  0.12817528  0.01123264  0.13612182     0.37910
C593        C  0.18376984  0.46416250  0.13265755     0.36330
C594        C  0.21658935  0.06191935  0.21501666     0.36330
N595        N  0.19331219  0.45451103  0.11499190    -0.38490
N596        N  0.24031925  0.08868566  0.23016859    -0.38490
N597        N  0.10062948  0.00301501  0.12041542    -0.37930
N598        N  0.17547340  0.44660399  0.23724146    -0.37940
C599        C  0.07979648  0.27027542  0.17119169    -0.04600
C600        C  0.05106310  0.24976663  0.15007890    -0.01720
C601        C  0.00337467  0.20848250  0.15018373     0.03270
C602        C  0.98932973  0.17659676  0.16932438    -0.04600
C603        C  0.02385746  0.19326335  0.18903125    -0.01710
C604        C  0.06175075  0.24256250  0.19120679     0.03270
C605        C  0.07179009  0.26619417  0.12786862     0.37920
C606        C  0.02066068  0.16260844  0.20801826     0.37910
C607        C  0.07806462  0.26431384  0.21446634     0.36330
C608        C  0.46995320  0.19884628  0.13012454     0.36330
N609        N  0.08849692  0.27824366  0.23375863    -0.38490
N610        N  0.44358599  0.19200579  0.11406883    -0.38490
N611        N  0.01998230  0.14077235  0.22411319    -0.37930
N612        N  0.08738949  0.27648297  0.10967909    -0.37940
C613        C  0.36316490  0.05338865  0.18111118    -0.04600
C614        C  0.36517227  0.51038611  0.17947312    -0.01720
C615        C  0.32250563  0.46386016  0.18267200     0.03270
C616        C  0.27517726  0.45847743  0.18150602    -0.04600
C617        C  0.27899518  0.50105717  0.19130857    -0.01710
C618        C  0.31706227  0.04679449  0.18520246     0.03270
C619        C  0.41291795  0.51620179  0.17901204     0.37920
C620        C  0.27816365  0.50067864  0.21650158     0.37910
C621        C  0.30886963  0.08692605  0.18485745     0.36330
C622        C  0.32928497  0.43332633  0.19876700     0.36330
N623        N  0.30080518  0.11802536  0.18287109    -0.38490
N624        N  0.33419593  0.41083307  0.21310618    -0.38490
N625        N  0.28066595  0.50166230  0.23672669    -0.37930
N626        N  0.45270660  0.52494293  0.17906402    -0.37940
C627        C  0.08086363  0.36334768  0.16976817    -0.04600
C628        C  0.05527444  0.35855473  0.14798382    -0.01720
C629        C  0.00508412  0.34691049  0.14615350     0.03270
C630        C  0.98062735  0.35042433  0.16591752    -0.04600
C631        C  0.01094067  0.36258223  0.18753443    -0.01710
C632        C  0.05619061  0.36320974  0.18942864     0.03270
C633        C  0.08018255  0.36538757  0.12675817     0.37920
C634        C  0.49966040  0.37773105  0.20898449     0.37910
C635        C  0.07638390  0.36324315  0.21254634     0.36330
C636        C  0.98015572  0.32661000  0.12372879     0.36330
N637        N  0.08842413  0.36278235  0.23183368    -0.38490
N638        N  0.96567416  0.31030434  0.10498433    -0.38490
N639        N  0.49591298  0.39104998  0.22716526    -0.37930
N640        N  0.09810369  0.37075487  0.10916875    -0.37940
C641        C  0.26529074  0.35683586  0.16544388    -0.04600
C642        C  0.29680763  0.38530124  0.14825182    -0.01720
C643        C  0.34253069  0.38799023  0.14656455     0.03270
C644        C  0.35054646  0.35005672  0.15411053    -0.04600
C645        C  0.31143130  0.31362744  0.16518371    -0.01710
C646        C  0.27672321  0.32257992  0.17512690     0.03270
C647        C  0.28520527  0.41527064  0.13374831     0.37920
C648        C  0.29977631  0.26508115  0.16004573     0.37910
C649        C  0.26670309  0.30900990  0.19880113     0.36330
C650        C  0.38175393  0.43381302  0.14090870     0.36330
N651        N  0.26311847  0.30151505  0.21846245    -0.38490
N652        N  0.41156879  0.47204896  0.13639789    -0.38490
N653        N  0.29060067  0.22639521  0.15468705    -0.37930
N654        N  0.27688162  0.43956779  0.12195855    -0.37940
C655        C  0.36710727  0.28378149  0.23461076    -0.04600
C656        C  0.36993223  0.25424404  0.21680386    -0.01720
C657        C  0.38471685  0.27162873  0.19420326     0.03270
C658        C  0.40163382  0.32031035  0.18913235    -0.04600
C659        C  0.39772219  0.34975098  0.20641940    -0.01710
C660        C  0.38110522  0.33203312  0.22891512     0.03270
C661        C  0.35394305  0.20421928  0.22110755     0.37920
C662        C  0.41821138  0.40052137  0.20223897     0.37910
C663        C  0.37998855  0.36442890  0.24626841     0.36330
C664        C  0.37952367  0.23835032  0.17550205     0.36330
N665        N  0.37955231  0.39079524  0.26001150    -0.38490
N666        N  0.37597945  0.21159759  0.16080995    -0.38490
N667        N  0.43724453  0.44153752  0.19934536    -0.37930
N668        N  0.33982711  0.16428211  0.22536485    -0.37940
C669        C  0.15828700  0.12366908  0.25276007    -0.04600
C670        C  0.18705520  0.16190042  0.23857862    -0.01720
C671        C  0.19486415  0.15161751  0.21583104     0.03270
C672        C  0.16376533  0.10649155  0.20396119    -0.04600
C673        C  0.12684004  0.07009431  0.21727847    -0.01710
C674        C  0.12659078  0.07773255  0.24181446     0.03270
C675        C  0.21757728  0.20994394  0.24961634     0.37920
C676        C  0.09018460  0.02457011  0.20597765     0.37910
C677        C  0.09589001  0.03790397  0.25607810     0.36330
C678        C  0.23831870  0.18638986  0.20616998     0.36330
N679        N  0.07139354  0.00601764  0.26749568    -0.38490
N680        N  0.27466961  0.21641913  0.20023879    -0.38490
N681        N  0.06100379  0.98842211  0.19674693    -0.37930
N682        N  0.24130440  0.24714018  0.25935958    -0.37940
C683        C  0.42749075  0.15664157  0.25781751    -0.04600
C684        C  0.41487127  0.10912980  0.25262665    -0.01720
C685        C  0.41367165  0.09388551  0.22942723     0.03270
C686        C  0.41927089  0.12471916  0.21022260    -0.04600
C687        C  0.43547216  0.17442183  0.21656997    -0.01710
C688        C  0.44268615  0.19021550  0.24029262     0.03270
C689        C  0.40177348  0.07533481  0.27147896     0.37920
C690        C  0.44883018  0.21208501  0.20007174     0.37910
C691        C  0.46189666  0.24095297  0.24691666     0.36330
C692        C  0.41348854  0.04895922  0.22722195     0.36330
N693        N  0.47716500  0.28125902  0.25219756    -0.38490
N694        N  0.41518685  0.01386679  0.22856342    -0.38490
N695        N  0.96599402  0.24607135  0.18891339    -0.37930
N696        N  0.39128313  0.04847687  0.28644537    -0.37940
C697        C  0.45245169  0.23956411  0.41597870    -0.04600
C698        C  0.49208930  0.28133651  0.42685330    -0.01720
C699        C  0.50206721  0.28230611  0.45128468     0.03270
C700        C  0.46735894  0.24685997  0.46539864    -0.04600
C701        C  0.42480055  0.20917885  0.45426394    -0.01710
C702        C  0.42144232  0.20187113  0.42993454     0.03270
C703        C  0.52582118  0.31955306  0.41263565     0.37920
C704        C  0.38402400  0.18212646  0.46827299     0.37910
C705        C  0.40262937  0.15383922  0.42038190     0.36330
C706        C  0.55100441  0.31119294  0.46056945     0.36330
N707        N  0.39456565  0.11775809  0.41166789    -0.38490
N708        N  0.09118335  0.33038236  0.46713606    -0.38490
N709        N  0.35321606  0.16529508  0.48101191    -0.37930
N710        N  0.55279541  0.34991957  0.40119877    -0.37940
C711        C  0.25373309  0.06224225  0.42140648    -0.04600
C712        C  0.29243982  0.06025085  0.43160064    -0.01720
C713        C  0.29312737  0.05452600  0.45540145     0.03270
C714        C  0.24844670  0.02469044  0.46600994    -0.04600
C715        C  0.20609495  0.00712595  0.45065477    -0.01710
C716        C  0.20797704  0.03200879  0.43009834     0.03270
C717        C  0.30872556  0.03394097  0.41785992     0.37920
C718        C  0.17059273  0.95663981  0.45013711     0.37910
C719        C  0.16393910  0.02181183  0.41688515     0.36330
C720        C  0.34058035  0.07472791  0.46677889     0.36330
N721        N  0.12866915  0.01353191  0.40629904    -0.38490
N722        N  0.37917038  0.09076124  0.47546189    -0.38490
N723        N  0.14461937  0.91543499  0.44773023    -0.37930
N724        N  0.31977958  0.01137672  0.40667119    -0.37940
C725        C  0.21239728  0.20240121  0.42070617    -0.04600
C726        C  0.18476072  0.22418668  0.42555969    -0.01720
C727        C  0.18751600  0.24424775  0.44849771     0.03270
C728        C  0.21819964  0.24282271  0.46711188    -0.04600
C729        C  0.24188306  0.21752537  0.46275499    -0.01710
C730        C  0.23811117  0.19666754  0.44035608     0.03270
C731        C  0.15783635  0.23092745  0.40637850     0.37920
C732        C  0.27514023  0.21807643  0.48120825     0.37910
C733        C  0.26516377  0.17271072  0.43847402     0.36330
C734        C  0.16815629  0.27584683  0.45098942     0.36330
N735        N  0.29039017  0.15719283  0.44135153    -0.38490
N736        N  0.15497697  0.30327855  0.45177773    -0.38490
N737        N  0.30221513  0.22051500  0.49606584    -0.37930
N738        N  0.13637513  0.23639689  0.39106082    -0.37940
Zr739      Zr  0.32602938  0.70622117  0.37709688     2.17510
O740        O  0.36241911  0.75844338  0.41212096    -0.50590
O741        O  0.29970779  0.63369373  0.40062065    -0.73800
O742        O  0.27416983  0.72849124  0.39482263    -0.80580
O743        O  0.44180759  0.71001321  0.37579489    -0.82330
O744        O  0.20082079  0.67656008  0.37781374    -0.77950
O745        O  0.41214526  0.75617934  0.38561945    -0.89590
O746        O  0.23716810  0.56798958  0.38188640    -0.75550
O747        O  0.25115570  0.63974351  0.36194100    -0.85040
O748        O  0.34496802  0.64846683  0.36245509    -0.84730
O749        O  0.29528369  0.74147319  0.34924432    -0.71490
O750        O  0.38408591  0.75041966  0.34911462    -0.83620
Zr751      Zr  0.29943188  0.65947128  0.29078524     2.26420
Zr752      Zr  0.21919520  0.67332440  0.33475679     2.06270
Zr753      Zr  0.40520408  0.69330931  0.33543973     2.10050
Zr754      Zr  0.27016995  0.58376113  0.34495333     1.78760
O755        O  0.48579860  0.76363085  0.33240626    -0.92430
O756        O  0.18642863  0.51694797  0.33946422    -0.40240
O757        O  0.33119340  0.62657515  0.31838200    -0.76870
O758        O  0.23820314  0.61639807  0.31776500    -0.95560
O759        O  0.27640751  0.71425591  0.30514255    -0.88860
O760        O  0.37412283  0.72538601  0.30632808    -0.91700
C761        C  0.26295167  0.59000269  0.40019974     1.02050
C762        C  0.43715524  0.73687983  0.39087235     1.14980
C763        C  0.22885746  0.70159491  0.39614029     1.05760
O764        O  0.13377735  0.61314831  0.33739040    -0.93860
O765        O  0.17800869  0.64720545  0.29434751    -0.89600
O766        O  0.21940714  0.62111986  0.27309148    -0.82750
C767        C  0.18405555  0.62798016  0.27566960     1.12400
O768        O  0.37731671  0.85026151  0.34627313    -0.95830
Zr769      Zr  0.35200225  0.78110002  0.31938109     1.88940
O770        O  0.32047080  0.71759805  0.25979375    -0.72480
O771        O  0.19661137  0.73512797  0.33207653    -0.51740
O772        O  0.30486026  0.81764576  0.30614373    -0.96420
O773        O  0.43583597  0.84618251  0.31687909    -0.53640
O774        O  0.36641566  0.79201731  0.27712650    -0.73000
C775        C  0.34996439  0.76352357  0.25870018     0.99350
O776        O  0.28091177  0.58425703  0.27051060    -0.61820
O777        O  0.43652177  0.63853712  0.34004008    -0.56620
O778        O  0.36378960  0.65938051  0.27208273    -0.93300
O779        O  0.42707727  0.67584257  0.29803431    -0.91730
O780        O  0.30738622  0.54099491  0.36253935    -0.92080
O781        O  0.26097331  0.51964901  0.31823349    -0.90870
C782        C  0.40549028  0.66510555  0.27752123     1.18190
H783        H  0.35796714  0.63634290  0.37431878     0.34130
H784        H  0.20914639  0.58896258  0.31066125     0.44990
H785        H  0.39745404  0.74013651  0.29460573     0.38510
H786        H  0.28982578  0.76526059  0.35668354     0.34990
H787        H  0.18419088  0.49243034  0.35051171     0.26780
H788        H  0.16077412  0.71664219  0.32966921     0.32720
H789        H  0.32825417  0.84750185  0.29856484     0.38630
H790        H  0.28033754  0.50706778  0.36293804     0.33090
H791        H  0.47011401  0.65910312  0.34690024     0.31960
H792        H  0.50759401  0.75018167  0.33221116     0.33650
H793        H  0.43440548  0.86747909  0.30485586     0.32610
H794        H  0.23426450  0.51342115  0.30667120     0.36610
H795        H  0.30050561  0.57258483  0.27896606     0.29340
H796        H  0.33592513  0.74999683  0.42241236     0.33580
H797        H  0.38012757  0.87674264  0.33648603     0.36430
H798        H  0.41848995  0.61748511  0.35280313     0.29040
H799        H  0.24708852  0.56030160  0.27383080     0.41910
H800        H  0.13381995  0.58955592  0.34840001     0.31960
H801        H  0.16673577  0.52947616  0.34602929     0.39580
H802        H  0.45208536  0.83067252  0.30948054     0.31430
H803        H  0.20298691  0.74954467  0.34811965     0.31500
H804        H  0.37121460  0.79134004  0.40721614     0.31760
C805        C  0.22090839  0.86155472  0.17220242     0.03020
C806        C  0.22415713  0.90894594  0.17670392     0.03020
C807        C  0.17756989  0.90917023  0.17518322     0.03020
C808        C  0.13038025  0.86399335  0.17213087     0.03020
C809        C  0.12899841  0.81822548  0.17218079     0.03020
C810        C  0.17352523  0.81688403  0.17194704     0.03020
C811        C  0.17093068  0.59600677  0.17853807     0.01300
C812        C  0.17457768  0.62868481  0.16070365     0.01300
C813        C  0.42561290  0.84007225  0.16607092     0.01300
C814        C  0.39549337  0.84532588  0.14827757     0.01300
C815        C  0.40964132  0.60399786  0.18481641     0.01300
C816        C  0.44178458  0.62595765  0.16691077     0.01300
C817        C  0.47865531  0.74127858  0.49066127     0.01300
C818        C  0.48181184  0.77632876  0.50790865     0.01300
C819        C  0.24779169  0.50628989  0.49068021     0.01300
C820        C  0.21036305  0.99720453  0.50560701     0.01300
C821        C  0.02412107  0.50124946  0.49003292     0.03020
C822        C  0.47638200  0.95635355  0.49205830     0.03020
C823        C  0.43147540  0.95734789  0.49435530     0.03020
C824        C  0.43298639  0.50334286  0.49599059     0.03020
C825        C  0.47891582  0.54876949  0.49490288     0.03020
C826        C  0.02458275  0.54797104  0.49265834     0.03020
C827        C  0.23068931  0.77027147  0.49098524     0.01300
C828        C  0.20067426  0.74303750  0.50939626     0.01300
Zr829      Zr  0.47697538  0.52903538  0.96168532     2.17510
O830        O  0.43260986  0.56793993  0.94920623    -0.50590
O831        O  0.00717318  0.50668353  0.92974075    -0.73800
O832        O  0.02854474  0.59949398  0.94332080    -0.80580
O833        O  0.35465210  0.93048577  0.95588890    -0.82330
O834        O  0.08420673  0.65109719  0.97130882    -0.77950
O835        O  0.41682199  0.47823440  0.93385038    -0.89590
O836        O  0.03494882  0.45885473  0.94261441    -0.75550
O837        O  0.05379592  0.54359854  0.97532331    -0.85040
O838        O  0.45835225  0.94983640  0.96987773    -0.84730
O839        O  0.99999162  0.58941146  0.99162192    -0.71490
O840        O  0.41037130  0.50203084  0.98541159    -0.83620
Zr841      Zr  0.99610687  0.49422296  0.04309652     2.26420
Zr842      Zr  0.07609023  0.60173780  0.00675626     2.06270
Zr843      Zr  0.39364654  0.92354513  0.99521137     2.10050
Zr844      Zr  0.03508053  0.46428429  0.98518091     1.78760
O845        O  0.30714631  0.88735814  0.00011847    -0.92430
O846        O  0.11938134  0.49758573  0.97593923    -0.40240
O847        O  0.47079673  0.93585936  0.01130562    -0.76870
O848        O  0.06036640  0.52275964  0.01709356    -0.95560
O849        O  0.01199930  0.57234053  0.03326940    -0.88860
O850        O  0.41912306  0.48115933  0.02800495    -0.91700
C851        C  0.02399275  0.47894626  0.92602551     1.02050
C852        C  0.37186186  0.95180076  0.93630102     1.14980
C853        C  0.06213014  0.64118501  0.95057529     1.05760
O854        O  0.15738065  0.62290635  0.99685299    -0.93860
O855        O  0.11693514  0.61435774  0.04643784    -0.89600
O856        O  0.07200455  0.54437275  0.06515686    -0.82750
C857        C  0.10844055  0.58725453  0.06424030     1.12400
O858        O  0.40210679  0.59906972  0.99293546    -0.95830
Zr859      Zr  0.43566110  0.55970015  0.01729207     1.88940
O860        O  0.45611226  0.51873781  0.07086120    -0.72480
O861        O  0.10682815  0.68452142  0.02113560    -0.51740
O862        O  0.97386687  0.64519638  0.02899929    -0.96420
O863        O  0.34853731  0.52416644  0.02054120    -0.53640
O864        O  0.42507099  0.56387182  0.05767339    -0.73000
C865        C  0.43601949  0.54425255  0.07407743     0.99350
O866        O  0.03168911  0.96803681  0.07422692    -0.61820
O867        O  0.37320157  0.84391220  0.97996427    -0.56620
O868        O  0.45291283  0.90739923  0.04504766    -0.93300
O869        O  0.37634268  0.88288686  0.03376858    -0.91730
O870        O  0.00608709  0.87911273  0.97657177    -0.92080
O871        O  0.07016728  0.93089473  0.01257800    -0.90870
C872        C  0.40824571  0.88414884  0.04896721     1.18190
H873        H  0.44751253  0.92874327  0.95604244     0.34130
H874        H  0.08921827  0.52569770  0.02488651     0.44990
H875        H  0.39489436  0.46838623  0.03941493     0.38510
H876        H  0.00421654  0.61949978  0.98604150     0.34990
H877        H  0.11941135  0.47142281  0.96666898     0.26780
H878        H  0.13583619  0.70443737  0.01227473     0.32720
H879        H  0.45048315  0.64761935  0.03874561     0.38630
H880        H  0.03498456  0.87841096  0.97177809     0.33090
H881        H  0.36747970  0.84490232  0.96290189     0.31960
H882        H  0.29161858  0.85767869  0.98985946     0.33650
H883        H  0.34519231  0.54863702  0.02955904     0.32610
H884        H  0.10249432  0.95838505  0.01790829     0.36610
H885        H  0.00522801  0.94056275  0.08181123     0.29340
H886        H  0.39910890  0.54742121  0.95407654     0.33580
H887        H  0.39137735  0.61541958  0.00378687     0.36430
H888        H  0.40401135  0.84373914  0.98173281     0.29040
H889        H  0.04797806  0.45348119  0.06599740     0.41910
H890        H  0.15604926  0.62258460  0.97956191     0.31960
H891        H  0.12548846  0.52285955  0.96458005     0.39580
H892        H  0.33907878  0.49717826  0.03124724     0.31430
H893        H  0.08251328  0.69266405  0.01496365     0.31500
H894        H  0.44579529  0.59775488  0.95902957     0.31760
Zr895      Zr  0.13327097  0.84866560  0.70523936     2.17510
O896        O  0.17605852  0.93317649  0.71827956    -0.50590
O897        O  0.10796224  0.79290549  0.73725658    -0.73800
O898        O  0.08889160  0.88113224  0.71837003    -0.80580
O899        O  0.25812155  0.88809936  0.70535444    -0.82330
O900        O  0.01149334  0.83342511  0.70606337    -0.77950
O901        O  0.19850846  0.86373794  0.73049735    -0.89590
O902        O  0.08864099  0.71874724  0.72347682    -0.75550
O903        O  0.05902484  0.77832138  0.69444426    -0.85040
O904        O  0.16131880  0.79709910  0.69366617    -0.84730
O905        O  0.09610844  0.87779322  0.67784707    -0.71490
O906        O  0.19197593  0.89445662  0.67853531    -0.83620
Zr907      Zr  0.10567879  0.79547760  0.62299741     2.26420
Zr908      Zr  0.02271958  0.80643875  0.66569279     2.06270
Zr909      Zr  0.21810470  0.84176205  0.66557553     2.10050
Zr910      Zr  0.08747047  0.72678480  0.68107290     1.78760
O911        O  0.29959555  0.90491654  0.65724744    -0.92430
O912        O  0.00505478  0.66343030  0.68811075    -0.40240
O913        O  0.14400864  0.76936115  0.65159360    -0.76870
O914        O  0.04869924  0.75154522  0.65254233    -0.95560
O915        O  0.07966851  0.84885122  0.63602016    -0.88860
O916        O  0.17866495  0.86619510  0.63675535    -0.91700
C917        C  0.09562662  0.74850030  0.74037764     1.02050
C918        C  0.24266246  0.88822921  0.72620031     1.14980
C919        C  0.04496710  0.86360920  0.72140186     1.05760
O920        O  0.44606928  0.73147700  0.66938338    -0.93860
O921        O  0.99279299  0.79634458  0.62381743    -0.89600
O922        O  0.02089614  0.74938764  0.61347234    -0.82750
C923        C  0.99882014  0.77121920  0.60810147     1.12400
O924        O  0.18189902  0.99278066  0.67437223    -0.95830
Zr925      Zr  0.15308925  0.91936079  0.65001645     1.88940
O926        O  0.12112139  0.85380422  0.59202650    -0.72480
O927        O  0.97410581  0.84504307  0.66152762    -0.51740
O928        O  0.10383253  0.95643307  0.64235096    -0.96420
O929        O  0.23584285  0.98301995  0.64352349    -0.53640
O930        O  0.15101432  0.92827643  0.60939660    -0.73000
C931        C  0.13981805  0.90016974  0.59156978     0.99350
O932        O  0.08804054  0.72753547  0.59642378    -0.61820
O933        O  0.25236227  0.79212397  0.67749309    -0.56620
O934        O  0.16713244  0.79823631  0.60076275    -0.93300
O935        O  0.23444065  0.82173490  0.62519352    -0.91730
O936        O  0.12934983  0.68302392  0.69062030    -0.92080
O937        O  0.06387904  0.65923841  0.65339103    -0.90870
C938        C  0.21049203  0.80747252  0.60480760     1.18190
H939        H  0.17673530  0.78952870  0.70650411     0.34130
H940        H  0.02011753  0.72076243  0.64803989     0.44990
H941        H  0.19964029  0.88089438  0.62419205     0.38510
H942        H  0.08834631  0.90213961  0.68219836     0.34990
H943        H  0.00914553  0.63974940  0.69742616     0.26780
H944        H  0.94710275  0.82737316  0.67185746     0.32720
H945        H  0.12452276  0.98573894  0.63367149     0.38630
H946        H  0.10401844  0.65186983  0.69649449     0.33090
H947        H  0.26003226  0.79904529  0.69452379     0.31960
H948        H  0.32067304  0.89218720  0.66267312     0.33650
H949        H  0.23483801  0.99331926  0.62738803     0.32610
H950        H  0.03697228  0.65711539  0.64317416     0.36610
H951        H  0.10329930  0.71093384  0.60447015     0.29340
H952        H  0.16047953  0.94987493  0.71073438     0.33580
H953        H  0.19076603  0.01953047  0.66356276     0.36430
H954        H  0.22450147  0.75850165  0.67612083     0.29040
H955        H  0.05301050  0.70360762  0.59652148     0.41910
H956        H  0.44277138  0.72829248  0.68644533     0.31960
H957        H  0.99352916  0.67862557  0.69920997     0.39580
H958        H  0.25464946  0.96633635  0.64297919     0.31430
H959        H  0.99446582  0.87753557  0.66924557     0.31500
H960        H  0.20783797  0.94806165  0.71124055     0.31760
C961        C  0.31079953  0.92109235  0.83987302     0.01300
C962        C  0.31000641  0.95272870  0.82270348     0.01300
C963        C  0.27420264  0.69155454  0.83779457     0.03020
C964        C  0.31837830  0.73655202  0.83217802     0.03020
C965        C  0.36462760  0.73859715  0.82767536     0.03020
C966        C  0.36632252  0.69351554  0.82999452     0.03020
C967        C  0.31984677  0.64764209  0.83110451     0.03020
C968        C  0.27398750  0.64653318  0.83417288     0.03020
C969        C  0.08776147  0.68877007  0.85699157     0.01300
C970        C  0.05854140  0.69234431  0.83828393     0.01300
C971        C  0.07315616  0.96692944  0.83022532     0.01300
C972        C  0.04105691  0.93430408  0.81237937     0.01300
C973        C  0.41604656  0.69339546  0.83261010    -0.04600
C974        C  0.42913350  0.66776030  0.81678007    -0.01720
C975        C  0.47042098  0.66204796  0.82140690     0.03270
C976        C  0.50771218  0.68998391  0.83912717    -0.04600
C977        C  0.49717361  0.71928073  0.85395004    -0.01710
C978        C  0.45093777  0.71731354  0.85189813     0.03270
C979        C  0.40577490  0.65277842  0.79363138     0.37920
C980        C  0.53259742  0.75044848  0.87224852     0.37910
C981        C  0.43882663  0.73747618  0.87113662     0.36330
C982        C  0.47415175  0.62624595  0.80743806     0.36330
N983        N  0.43150004  0.75231565  0.88787981    -0.38490
N984        N  0.47651970  0.59732625  0.79632165    -0.38490
N985        N  0.06018898  0.77563602  0.88703353    -0.37930
N986        N  0.39164603  0.64234061  0.77426469    -0.37940
C987        C  0.22664068  0.69058925  0.84585682    -0.04600
C988        C  0.19211074  0.65556430  0.86047541    -0.01720
C989        C  0.14592122  0.65275150  0.86320172     0.03270
C990        C  0.13560205  0.68794604  0.85306574    -0.04600
C991        C  0.17699073  0.72817372  0.84433127    -0.01710
C992        C  0.22295694  0.73227791  0.84804282     0.03270
C993        C  0.21303883  0.64588990  0.88114074     0.37920
C994        C  0.17736623  0.77201479  0.83974915     0.37910
C995        C  0.24880144  0.76031937  0.86933375     0.36330
C996        C  0.11655088  0.62237881  0.88116227     0.36330
N997        N  0.26853057  0.77996630  0.88698511    -0.38490
N998        N  0.09774380  0.60131174  0.89734001    -0.38490
N999        N  0.18060000  0.80892191  0.83662094    -0.37930
N1000       N  0.22911776  0.64208457  0.89897043    -0.37940
C1001       C  0.22413333  0.59811133  0.83186318    -0.04600
C1002       C  0.18969358  0.58883682  0.81293018    -0.01720
C1003       C  0.14076937  0.54815549  0.81210700     0.03270
C1004       C  0.12589885  0.51115989  0.82876506    -0.04600
C1005       C  0.16299892  0.51782707  0.84589196    -0.01710
C1006       C  0.20884301  0.56170160  0.84862174     0.03270
C1007       C  0.20512536  0.61951789  0.79311765     0.37920
C1008       C  0.15670521  0.47832286  0.86020986     0.37910
C1009       C  0.23689492  0.56978622  0.87042235     0.36330
C1010       C  0.10826226  0.54355441  0.79250336     0.36330
N1011       N  0.25504626  0.57360280  0.88889862    -0.38490
N1012       N  0.08519436  0.54353509  0.77632215    -0.38490
N1013       N  0.15501744  0.94845409  0.87197741    -0.37930
N1014       N  0.21616697  0.64154786  0.77641080    -0.37940
C1015       C  0.49721447  0.88422449  0.81804669    -0.04600
C1016       C  0.49692340  0.84085779  0.81268157    -0.01720
C1017       C  0.45360848  0.79382001  0.81259680     0.03270
C1018       C  0.41117150  0.78885212  0.82185493    -0.04600
C1019       C  0.41015235  0.83214497  0.81828833    -0.01710
C1020       C  0.45238401  0.87734601  0.82375568     0.03270
C1021       C  0.54255142  0.84686749  0.80782485     0.37920
C1022       C  0.38693315  0.83241989  0.79602942     0.37910
C1023       C  0.44805569  0.91643246  0.83271156     0.36330
C1024       C  0.44326319  0.76410031  0.79185190     0.36330
N1025       N  0.44376199  0.94751448  0.84011785    -0.38490
N1026       N  0.43178865  0.74329727  0.77395169    -0.38490
N1027       N  0.37011492  0.83281580  0.77775778    -0.37930
N1028       N  0.08267191  0.85995371  0.80514538    -0.37940
C1029       C  0.31895309  0.59935585  0.82941496    -0.04600
C1030       C  0.30962400  0.57313563  0.80817176    -0.01720
C1031       C  0.32005510  0.53487439  0.80684556     0.03270
C1032       C  0.31482156  0.50514266  0.82663071    -0.04600
C1033       C  0.31316060  0.52833548  0.84811174    -0.01710
C1034       C  0.32778256  0.57859250  0.84907457     0.03270
C1035       C  0.29421355  0.58828925  0.78741507     0.37920
C1036       C  0.28444445  0.50257127  0.86714043     0.37910
C1037       C  0.34709579  0.60760255  0.87059535     0.36330
C1038       C  0.34382355  0.53322214  0.78633932     0.36330
N1039       N  0.36234513  0.63230113  0.88736990    -0.38490
N1040       N  0.36356961  0.53347577  0.76993770    -0.38490
N1041       N  0.26214043  0.98661049  0.88332859    -0.37930
N1042       N  0.28261232  0.60105629  0.77080552    -0.37940
C1043       C  0.31335308  0.87333380  0.83599069    -0.04600
C1044       C  0.34186650  0.86192020  0.85252960    -0.01720
C1045       C  0.34164607  0.81759079  0.85133075     0.03270
C1046       C  0.31720060  0.78356868  0.83280205    -0.04600
C1047       C  0.29130437  0.79443786  0.81558301    -0.01710
C1048       C  0.28631995  0.83617125  0.81789467     0.03270
C1049       C  0.37388931  0.89412884  0.87158274     0.37920
C1050       C  0.26895501  0.76222317  0.79513389     0.37910
C1051       C  0.24825224  0.83467862  0.80259166     0.36330
C1052       C  0.36406159  0.80529837  0.87067091     0.36330
N1053       N  0.21623695  0.82853678  0.78983853    -0.38490
N1054       N  0.38027810  0.79737629  0.88730546    -0.38490
N1055       N  0.25159725  0.73928605  0.77799215    -0.37930
N1056       N  0.40158308  0.91640401  0.88694328    -0.37940
C1057       C  0.27283769  0.91752262  0.74781560    -0.04600
C1058       C  0.25049613  0.93479279  0.76300583    -0.01720
C1059       C  0.25500805  0.93183159  0.78722373     0.03270
C1060       C  0.29678773  0.93460765  0.79731628    -0.04600
C1061       C  0.32612519  0.92693898  0.78208249    -0.01710
C1062       C  0.31112944  0.91305249  0.75798676     0.03270
C1063       C  0.23946222  0.97094198  0.75545889     0.37920
C1064       C  0.37206014  0.93556199  0.79057057     0.37910
C1065       C  0.33470272  0.89467909  0.74381303     0.36330
C1066       C  0.21768120  0.92629180  0.80227325     0.36330
N1067       N  0.35269408  0.87941754  0.73218594    -0.38490
N1068       N  0.18940839  0.91965795  0.81572320    -0.38490
N1069       N  0.41032249  0.94421756  0.79658423    -0.37930
N1070       N  0.23264302  0.00193959  0.75040724    -0.37940
C1071       C  0.08838523  0.73172960  0.76525668    -0.04600
C1072       C  0.07388498  0.75460254  0.78124181    -0.01720
C1073       C  0.07575080  0.74736956  0.80528953     0.03270
C1074       C  0.07757832  0.70768012  0.81374692    -0.04600
C1075       C  0.09039880  0.68271627  0.79773056    -0.01710
C1076       C  0.09793989  0.69600086  0.77390842     0.03270
C1077       C  0.04732384  0.77635911  0.77203442     0.37920
C1078       C  0.10210239  0.64814101  0.80604520     0.37910
C1079       C  0.11538693  0.67285235  0.75856322     0.36330
C1080       C  0.08487846  0.78405651  0.82251237     0.36330
N1081       N  0.12937473  0.65423371  0.74642258    -0.38490
N1082       N  0.09635978  0.81162123  0.83805683    -0.38490
N1083       N  0.11585437  0.62374678  0.81332781    -0.37930
N1084       N  0.02566576  0.79142220  0.76232713    -0.37940
C1085       C  0.04027196  0.88391332  0.74434082    -0.04600
C1086       C  0.00589102  0.89759339  0.74833117    -0.01720
C1087       C  0.01100347  0.92497545  0.76920764     0.03270
C1088       C  0.05003910  0.93802364  0.78635033    -0.04600
C1089       C  0.08944276  0.93565920  0.77868036    -0.01710
C1090       C  0.08177484  0.90290182  0.76066608     0.03270
C1091       C  0.96853169  0.88762936  0.73023867     0.37920
C1092       C  0.13865532  0.96622751  0.78829335     0.37910
C1093       C  0.11653781  0.88653904  0.76080942     0.36330
C1094       C  0.98959987  0.95502784  0.76838530     0.36330
N1095       N  0.14405790  0.87352876  0.76271007    -0.38490
N1096       N  0.97652887  0.98234863  0.76549475    -0.38490
N1097       N  0.17927034  0.99150891  0.79398712    -0.37930
N1098       N  0.93920588  0.87983628  0.71549127    -0.37940
C1099       C  0.31684984  0.93583427  0.86527743    -0.04600
C1100       C  0.35996460  0.97655070  0.87396644    -0.01720
C1101       C  0.36726059  0.98682220  0.89800886     0.03270
C1102       C  0.34290743  0.94953521  0.91403722    -0.04600
C1103       C  0.29774479  0.91021856  0.90584696    -0.01710
C1104       C  0.28272211  0.90667277  0.88159461     0.03270
C1105       C  0.39659814  0.50674467  0.85820173     0.37920
C1106       C  0.26632195  0.87693747  0.92243919     0.37910
C1107       C  0.23215149  0.88718862  0.87476956     0.36330
C1108       C  0.38475169  0.53605555  0.90518866     0.36330
N1109       N  0.19201126  0.87561881  0.87021462    -0.38490
N1110       N  0.39501971  0.57535495  0.90977025    -0.38490
N1111       N  0.24181344  0.85086760  0.93613644    -0.37930
N1112       N  0.42443692  0.52885773  0.84464723    -0.37940
C1113       C  0.07903486  0.68969949  0.88319821    -0.04600
C1114       C  0.03345628  0.66536874  0.89332032    -0.01720
C1115       C  0.03197532  0.66926333  0.91771973     0.03270
C1116       C  0.07220829  0.67726851  0.93245961    -0.04600
C1117       C  0.11749686  0.70270639  0.92333558    -0.01710
C1118       C  0.11990611  0.71484452  0.89966994     0.03270
C1119       C  0.98809127  0.63646848  0.88005493     0.37920
C1120       C  0.16112080  0.71684020  0.93799454     0.37910
C1121       C  0.16096230  0.75900753  0.89402220     0.36330
C1122       C  0.49102820  0.66831528  0.92772321     0.36330
N1123       N  0.19367707  0.79653319  0.89120426    -0.38490
N1124       N  0.45936589  0.67037273  0.93539675    -0.38490
N1125       N  0.19604922  0.72805332  0.94963704    -0.37930
N1126       N  0.45064593  0.61400546  0.87003793    -0.37940
C1127       C  0.03110411  0.47074047  0.90093694    -0.04600
C1128       C  0.02565853  0.49830127  0.88299429    -0.01720
C1129       C  0.04198321  0.99861594  0.86066725     0.03270
C1130       C  0.05427525  0.96407554  0.85409577    -0.04600
C1131       C  0.04941760  0.92934592  0.87052268    -0.01710
C1132       C  0.04186241  0.93489806  0.89414462     0.03270
C1133       C  0.50154301  0.52525335  0.88691773     0.37920
C1134       C  0.05113618  0.88705370  0.86374190     0.37910
C1135       C  0.04385700  0.90224219  0.91095183     0.36330
C1136       C  0.53844042  0.52955744  0.84333022     0.36330
N1137       N  0.04593206  0.87599068  0.92404040    -0.38490
N1138       N  0.53142219  0.55196701  0.82969075    -0.38490
N1139       N  0.05108457  0.85168118  0.86001629    -0.37930
N1140       N  0.48304408  0.54697320  0.89125635    -0.37940
C1141       C  0.22886781  0.79560445  0.58365576    -0.04600
C1142       C  0.23964111  0.82666308  0.56476642    -0.01720
C1143       C  0.22287477  0.80815881  0.54134012     0.03270
C1144       C  0.20536454  0.75967840  0.53549351    -0.04600
C1145       C  0.18883257  0.72818164  0.55481849    -0.01710
C1146       C  0.20706979  0.74594381  0.57799908     0.03270
C1147       C  0.28027036  0.87454373  0.56903028     0.37920
C1148       C  0.14067294  0.68596934  0.55368081     0.37910
C1149       C  0.19499690  0.71231752  0.59680886     0.36330
C1150       C  0.20814704  0.83186257  0.52444537     0.36330
N1151       N  0.18517280  0.68553475  0.61177797    -0.38490
N1152       N  0.19281397  0.84558483  0.50962235    -0.38490
N1153       N  0.10165005  0.65334421  0.55435246    -0.37930
N1154       N  0.31452113  0.91197983  0.57329470    -0.37940
C1155       C  0.07308667  0.59714243  0.49547616    -0.04600
C1156       C  0.08145179  0.63802928  0.48252379    -0.01720
C1157       C  0.11650101  0.68469263  0.49104760     0.03270
C1158       C  0.15837001  0.69193045  0.50342954    -0.04600
C1159       C  0.15741325  0.65038665  0.51201163    -0.01710
C1160       C  0.11190491  0.60567048  0.51192629     0.03270
C1161       C  0.07327186  0.63376205  0.45748947     0.37920
C1162       C  0.20132837  0.65763198  0.52406597     0.37910
C1163       C  0.10426296  0.57032290  0.52918870     0.36330
C1164       C  0.10605074  0.72326016  0.49029785     0.36330
N1165       N  0.09642686  0.54160807  0.54299958    -0.38490
N1166       N  0.09810129  0.75456708  0.49110230    -0.38490
N1167       N  0.23880608  0.66909141  0.53323222    -0.37930
N1168       N  0.06993169  0.63276089  0.43726648    -0.37940
C1169       C  0.38100276  0.90873626  0.49406339    -0.04600
C1170       C  0.35890629  0.88408404  0.51445088    -0.01720
C1171       C  0.31528980  0.83705342  0.51319209     0.03270
C1172       C  0.28245363  0.81947736  0.49277190    -0.04600
C1173       C  0.30420901  0.84702870  0.47243915    -0.01710
C1174       C  0.35374309  0.88589531  0.47293843     0.03270
C1175       C  0.38061766  0.90626410  0.53710460     0.37920
C1176       C  0.27838518  0.83777933  0.44981249     0.37910
C1177       C  0.37538091  0.90203390  0.45082798     0.36330
C1178       C  0.31045358  0.80469468  0.53158069     0.36330
N1179       N  0.38833784  0.91230133  0.43216636    -0.38490
N1180       N  0.30769144  0.77933699  0.54641175    -0.38490
N1181       N  0.26292452  0.83480537  0.43078112    -0.37930
N1182       N  0.39707386  0.92337464  0.55553015    -0.37940
C1183       C  0.15886887  0.92567267  0.56986867    -0.04600
C1184       C  0.20037548  0.92702833  0.56246514    -0.01720
C1185       C  0.21825675  0.94674669  0.54085921     0.03270
C1186       C  0.20649428  0.98063359  0.53100381    -0.04600
C1187       C  0.18184785  0.99520569  0.54595689    -0.01710
C1188       C  0.15426545  0.96555965  0.56377453     0.03270
C1189       C  0.23524658  0.93288497  0.58118972     0.37920
C1190       C  0.19568744  0.04512553  0.54762778     0.37910
C1191       C  0.12556935  0.97942503  0.57712466     0.36330
C1192       C  0.25363979  0.93656162  0.53260570     0.36330
N1193       N  0.10323808  0.99146275  0.58755233    -0.38490
N1194       N  0.28248692  0.92723622  0.52735898    -0.38490
N1195       N  0.20783615  0.08488641  0.55203502    -0.37930
N1196       N  0.26211552  0.94124846  0.59721269    -0.37940
C1197       C  0.29131273  0.99898719  0.49612780    -0.04600
C1198       C  0.30216246  0.97368140  0.47919008    -0.01720
C1199       C  0.35052387  0.98459550  0.47740210     0.03270
C1200       C  0.38450932  0.50300279  0.49680210    -0.04600
C1201       C  0.36969380  0.51850028  0.51654063    -0.01710
C1202       C  0.32790875  0.52419935  0.51453879     0.03270
C1203       C  0.26565581  0.94094146  0.46168461     0.37920
C1204       C  0.39059104  0.51992976  0.53960198     0.37910
C1205       C  0.31944997  0.54959250  0.53295670     0.36330
C1206       C  0.36710701  0.98763025  0.45433381     0.36330
N1207       N  0.31217942  0.56896124  0.54796216    -0.38490
N1208       N  0.37899566  0.99131188  0.43542915    -0.38490
N1209       N  0.40448966  0.51929238  0.55853720    -0.37930
N1210       N  0.23761561  0.91433408  0.44745681    -0.37940
C1211       C  0.16407776  0.99890139  0.49700001    -0.04600
C1212       C  0.16420156  0.54068442  0.48933142    -0.01720
C1213       C  0.11986539  0.53913526  0.48174584     0.03270
C1214       C  0.07328862  0.49921593  0.48701763    -0.04600
C1215       C  0.07571027  0.95590352  0.48660531    -0.01710
C1216       C  0.11811103  0.95626056  0.49603494     0.03270
C1217       C  0.21029141  0.58437518  0.48825383     0.37920
C1218       C  0.06317873  0.93211403  0.46383340     0.37910
C1219       C  0.11659848  0.91147967  0.50121311     0.36330
C1220       C  0.12313759  0.56801496  0.46206180     0.36330
N1221       N  0.11802014  0.87815727  0.50772624    -0.38490
N1222       N  0.12901267  0.58996515  0.44542776    -0.38490
N1223       N  0.55710958  0.91536300  0.44514717    -0.37930
N1224       N  0.24871884  0.61775754  0.48780376    -0.37940
C1225       C  0.99118352  0.77376546  0.58247978    -0.04600
C1226       C  0.01064887  0.81928939  0.57264109    -0.01720
C1227       C  0.02055113  0.82419918  0.54865901     0.03270
C1228       C  0.50436301  0.78228481  0.53348671    -0.04600
C1229       C  0.50183603  0.74341962  0.54533497    -0.01710
C1230       C  0.98450823  0.73468687  0.56789865     0.03270
C1231       C  0.01895165  0.86069708  0.58694749     0.37920
C1232       C  0.54069788  0.73410385  0.54191052     0.37910
C1233       C  0.96496456  0.68657343  0.57682519     0.37140
C1234       C  0.04616014  0.87263052  0.54073979     0.36330
N1235       N  0.44862519  0.64828843  0.58419440    -0.38490
N1236       N  0.06422777  0.91308975  0.53672195    -0.38490
N1237       N  0.57262419  0.72751753  0.53987629    -0.37930
N1238       N  0.02438837  0.89298242  0.59853078    -0.37940
C1239       C  0.48151208  0.69265163  0.49302546    -0.04600
C1240       C  0.46222057  0.65976109  0.51143052    -0.01720
C1241       C  0.47205670  0.62078351  0.51416839     0.03270
C1242       C  0.47786638  0.59742045  0.49440975    -0.04600
C1243       C  0.48029883  0.62097137  0.47337813    -0.01710
C1244       C  0.49208453  0.67063223  0.47359882     0.03270
C1245       C  0.42344712  0.65848028  0.52372501     0.37920
C1246       C  0.97059074  0.59490417  0.45117776     0.37910
C1247       C  0.01706112  0.69715017  0.45360472     0.36330
C1248       C  0.48416682  0.61131155  0.53723311     0.36330
N1249       N  0.03793628  0.71585666  0.43735786    -0.38490
N1250       N  0.49590734  0.60521875  0.55569419    -0.38490
N1251       N  0.96459574  0.57649821  0.43290693    -0.37930
N1252       N  0.39247472  0.65915831  0.53292266    -0.37940
C1253       C  0.46364527  0.81368781  0.50231515    -0.04600
C1254       C  0.45267198  0.83756383  0.51992512    -0.01720
C1255       C  0.46498512  0.88665099  0.51735494     0.03270
C1256       C  0.47156060  0.90656137  0.49498153    -0.04600
C1257       C  0.46222721  0.87364107  0.47598667    -0.01710
C1258       C  0.45365111  0.82624864  0.47997671     0.03270
C1259       C  0.42565616  0.81112725  0.53946415     0.37920
C1260       C  0.46002403  0.88614198  0.45197509     0.37910
C1261       C  0.40824402  0.79063954  0.46879799     0.36330
C1262       C  0.47869162  0.91832559  0.53793214     0.36330
N1263       N  0.36994546  0.76375579  0.46079130    -0.38490
N1264       N  0.49256868  0.94434623  0.55426578    -0.38490
N1265       N  0.46106637  0.89427064  0.43231675    -0.37930
N1266       N  0.40397833  0.78966676  0.55501210    -0.37940
C1267       C  0.43411208  0.59823260  0.14349387    -0.04600
C1268       C  0.39199865  0.58001878  0.12765310    -0.01720
C1269       C  0.39166121  0.56243364  0.10473196     0.03270
C1270       C  0.42956369  0.55538290  0.09857834    -0.04600
C1271       C  0.96585778  0.56455065  0.11568263    -0.01710
C1272       C  0.47256794  0.59290265  0.13573819     0.03270
C1273       C  0.34846012  0.57875911  0.13345535     0.37920
C1274       C  0.99495982  0.54295079  0.11233299     0.37910
C1275       C  0.02190731  0.62607024  0.14388359     0.36330
C1276       C  0.35080488  0.54877736  0.08801388     0.36330
N1277       N  0.06146937  0.65625602  0.14873191    -0.38490
N1278       N  0.31785998  0.53789670  0.07494925    -0.38490
N1279       N  0.01486030  0.52309628  0.10700771    -0.37930
N1280       N  0.30994316  0.57186723  0.13572099    -0.37940
C1281       C  0.40306257  0.84924779  0.12213002    -0.04600
C1282       C  0.42876568  0.89527036  0.11346173    -0.01720
C1283       C  0.41559597  0.90424905  0.09096056     0.03270
C1284       C  0.39739334  0.86768350  0.07351761    -0.04600
C1285       C  0.37790896  0.81974851  0.08063155    -0.01710
C1286       C  0.37636612  0.81038785  0.10511415     0.03270
C1287       C  0.47052901  0.93082107  0.12760133     0.37920
C1288       C  0.35959030  0.78083016  0.06306462     0.37910
C1289       C  0.35627995  0.76113485  0.11172225     0.36330
C1290       C  0.39024409  0.93049428  0.08938773     0.36330
N1291       N  0.34185326  0.72083901  0.11513084    -0.38490
N1292       N  0.36516771  0.44666227  0.08769503    -0.38490
N1293       N  0.34515897  0.74972195  0.04901973    -0.37930
N1294       N  0.50319311  0.95582953  0.14039035    -0.37940
C1295       C  0.16167395  0.61093583  0.13570131    -0.04600
C1296       C  0.19332652  0.61239097  0.11900082    -0.01720
C1297       C  0.17812858  0.60552906  0.09466332     0.03270
C1298       C  0.13581826  0.60678998  0.08730166    -0.04600
C1299       C  0.10884133  0.61158347  0.10452194    -0.01710
C1300       C  0.11666666  0.60297308  0.12783024     0.03270
C1301       C  0.24101887  0.62347073  0.12694572     0.37920
C1302       C  0.07901281  0.63223729  0.09828461     0.37910
C1303       C  0.07883106  0.57836321  0.14382746     0.36330
C1304       C  0.20702860  0.60072334  0.07748665     0.36330
N1305       N  0.05066328  0.55624026  0.15724881    -0.38490
N1306       N  0.23025328  0.59704326  0.06370990    -0.38490
N1307       N  0.05667261  0.65007981  0.09263666    -0.37930
N1308       N  0.27953971  0.63431161  0.13417346    -0.37940
C1309       C  0.16962466  0.76722248  0.16844354    -0.04600
C1310       C  0.18075748  0.75407363  0.14715750    -0.01720
C1311       C  0.18733634  0.71324374  0.14537357     0.03270
C1312       C  0.17259168  0.67734563  0.16335683    -0.04600
C1313       C  0.14876864  0.68616268  0.18137669    -0.01710
C1314       C  0.15645443  0.73296098  0.18613991     0.03270
C1315       C  0.18903773  0.78480881  0.12737409     0.37920
C1316       C  0.10747605  0.64664753  0.19140211     0.37910
C1317       C  0.15782774  0.74648559  0.21027791     0.36330
C1318       C  0.21036772  0.71144589  0.12458184     0.36330
N1319       N  0.16138663  0.75646631  0.22999505    -0.38490
N1320       N  0.23004634  0.71421211  0.10777136    -0.38490
N1321       N  0.07388734  0.61434051  0.19883765    -0.37930
N1322       N  0.19594094  0.80914123  0.11154475    -0.37940
C1323       C  0.17676072  0.95689455  0.17537938    -0.04600
C1324       C  0.17815905  0.98145338  0.19619317    -0.01720
C1325       C  0.18771797  0.02987605  0.19552389     0.03270
C1326       C  0.17393637  0.54784091  0.17544855    -0.04600
C1327       C  0.16212589  0.51642649  0.15493906    -0.01710
C1328       C  0.17378055  0.97881077  0.15458138     0.03270
C1329       C  0.17552142  0.96045786  0.21867160     0.37920
C1330       C  0.12817536  0.51123248  0.13612112     0.37910
C1331       C  0.18377060  0.96416354  0.13265749     0.36330
C1332       C  0.21658750  0.56191876  0.21501654     0.36330
N1333       N  0.19331292  0.95451271  0.11499168    -0.38490
N1334       N  0.24031748  0.58868492  0.23016850    -0.38490
N1335       N  0.10063042  0.50301531  0.12041438    -0.37930
N1336       N  0.17547597  0.94660417  0.23724139    -0.37940
C1337       C  0.07979606  0.77027561  0.17119225    -0.04600
C1338       C  0.05106211  0.74976661  0.15007961    -0.01720
C1339       C  0.00337358  0.70848269  0.15018471     0.03270
C1340       C  0.98932886  0.67659723  0.16932546    -0.04600
C1341       C  0.02385692  0.69326398  0.18903220    -0.01710
C1342       C  0.06175056  0.74256306  0.19120750     0.03270
C1343       C  0.07178848  0.76619375  0.12786918     0.37920
C1344       C  0.02066029  0.66260919  0.20801925     0.37910
C1345       C  0.07806514  0.76431477  0.21446694     0.36330
C1346       C  0.46995159  0.69884653  0.13012573     0.36330
N1347       N  0.08849812  0.77824508  0.23375915    -0.38490
N1348       N  0.44358400  0.69200611  0.11407019    -0.38490
N1349       N  0.01998205  0.64077302  0.22411412    -0.37930
N1350       N  0.08738722  0.77648210  0.10967950    -0.37940
C1351       C  0.36316415  0.55338934  0.18111279    -0.04600
C1352       C  0.36517270  0.01038524  0.17947154    -0.01720
C1353       C  0.32250601  0.96385948  0.18267069     0.03270
C1354       C  0.27517777  0.95847705  0.18150501    -0.04600
C1355       C  0.27899624  0.00105710  0.19130743    -0.01710
C1356       C  0.31706137  0.54679490  0.18520401     0.03270
C1357       C  0.41291814  0.01620046  0.17901003     0.37920
C1358       C  0.27816562  0.00067927  0.21650048     0.37910
C1359       C  0.30886844  0.58692629  0.18485880     0.36330
C1360       C  0.32928553  0.93332591  0.19876578     0.36330
N1361       N  0.30080383  0.61802544  0.18287196    -0.38490
N1362       N  0.33419655  0.91083283  0.21310504    -0.38490
N1363       N  0.28066864  0.00166348  0.23672559    -0.37930
N1364       N  0.45270653  0.02494100  0.17906144    -0.37940
C1365       C  0.08086415  0.86334833  0.16976839    -0.04600
C1366       C  0.05527551  0.85855604  0.14798401    -0.01720
C1367       C  0.00508533  0.84691224  0.14615348     0.03270
C1368       C  0.98062781  0.85042504  0.16591749    -0.04600
C1369       C  0.01094074  0.86258222  0.18753453    -0.01710
C1370       C  0.05619091  0.86321011  0.18942881     0.03270
C1371       C  0.08018409  0.86538869  0.12675851     0.37920
C1372       C  0.49965997  0.87773009  0.20898474     0.37910
C1373       C  0.07638453  0.86324407  0.21254653     0.36330
C1374       C  0.98015820  0.82661362  0.12372836     0.36330
N1375       N  0.08842508  0.86278383  0.23183386    -0.38490
N1376       N  0.96567850  0.81030981  0.10498349    -0.38490
N1377       N  0.49591227  0.89104827  0.22716565    -0.37930
N1378       N  0.09810556  0.87075563  0.10916921    -0.37940
C1379       C  0.26529006  0.85683503  0.16544317    -0.04600
C1380       C  0.29680608  0.88529981  0.14825075    -0.01720
C1381       C  0.34252950  0.88798961  0.14656336     0.03270
C1382       C  0.35054658  0.85005715  0.15410995    -0.04600
C1383       C  0.31143168  0.81362769  0.16518319    -0.01710
C1384       C  0.27672312  0.82257958  0.17512627     0.03270
C1385       C  0.28520250  0.91526801  0.13374695     0.37920
C1386       C  0.29977654  0.76508158  0.16004460     0.37910
C1387       C  0.26670301  0.80900945  0.19880046     0.36330
C1388       C  0.38175135  0.93381241  0.14090646     0.36330
N1389       N  0.26311843  0.80151459  0.21846177    -0.38490
N1390       N  0.41156433  0.97204862  0.13639481    -0.38490
N1391       N  0.29060096  0.72639593  0.15468537    -0.37930
N1392       N  0.27687802  0.93956417  0.12195688    -0.37940
C1393       C  0.36710733  0.78378339  0.23461080    -0.04600
C1394       C  0.36993197  0.75424551  0.21680404    -0.01720
C1395       C  0.38471649  0.77162970  0.19420335     0.03270
C1396       C  0.40163383  0.82031132  0.18913221    -0.04600
C1397       C  0.39772263  0.84975243  0.20641916    -0.01710
C1398       C  0.38110558  0.83203498  0.22891495     0.03270
C1399       C  0.35394285  0.70422083  0.22110801     0.37920
C1400       C  0.41821300  0.90052295  0.20223873     0.37910
C1401       C  0.37998939  0.86443122  0.24626814     0.36330
C1402       C  0.37952303  0.73835074  0.17550237     0.36330
N1403       N  0.37955353  0.89079792  0.26001114    -0.38490
N1404       N  0.37597848  0.71159724  0.16081060    -0.38490
N1405       N  0.43724725  0.94153919  0.19934526    -0.37930
N1406       N  0.33982682  0.66428372  0.22536552    -0.37940
C1407       C  0.15828744  0.62367102  0.25275969    -0.04600
C1408       C  0.18705609  0.66190166  0.23857798    -0.01720
C1409       C  0.19486421  0.65161785  0.21583039     0.03270
C1410       C  0.16376460  0.60649177  0.20396083    -0.04600
C1411       C  0.12683939  0.57009523  0.21727840    -0.01710
C1412       C  0.12659060  0.57773431  0.24181437     0.03270
C1413       C  0.21757894  0.70994529  0.24961542     0.37920
C1414       C  0.09018348  0.52457091  0.20597788     0.37910
C1415       C  0.09588955  0.53790642  0.25607827     0.36330
C1416       C  0.23831874  0.68638914  0.20616893     0.36330
N1417       N  0.07139284  0.50602063  0.26749607    -0.38490
N1418       N  0.27466964  0.71641698  0.20023700    -0.38490
N1419       N  0.06100226  0.48842284  0.19674737    -0.37930
N1420       N  0.24130637  0.74714149  0.25935865    -0.37940
C1421       C  0.42749133  0.65664393  0.25781874    -0.04600
C1422       C  0.41487195  0.60913212  0.25262817    -0.01720
C1423       C  0.41367144  0.59388711  0.22942879     0.03270
C1424       C  0.41927048  0.62472039  0.21022400    -0.04600
C1425       C  0.43547204  0.67442324  0.21657112    -0.01710
C1426       C  0.44268639  0.69021743  0.24029368     0.03270
C1427       C  0.40177495  0.57533780  0.27148076     0.37920
C1428       C  0.44882979  0.71208606  0.20007271     0.37910
C1429       C  0.46189692  0.74095502  0.24691749     0.36330
C1430       C  0.41348698  0.54896011  0.22722369     0.36330
N1431       N  0.47716528  0.78126115  0.25219822    -0.38490
N1432       N  0.41518412  0.51386707  0.22856536    -0.38490
N1433       N  0.96599342  0.74607225  0.18891408    -0.37930
N1434       N  0.39128526  0.54848044  0.28644741    -0.37940
C1435       C  0.45244950  0.73956369  0.41597941    -0.04600
C1436       C  0.49208730  0.78133588  0.42685404    -0.01720
C1437       C  0.50206482  0.78230547  0.45128542     0.03270
C1438       C  0.46735647  0.74685927  0.46539926    -0.04600
C1439       C  0.42479802  0.70917837  0.45426458    -0.01710
C1440       C  0.42143969  0.70187078  0.42993518     0.03270
C1441       C  0.52581964  0.81955217  0.41263641     0.37920
C1442       C  0.38402149  0.68212631  0.46827370     0.37910
C1443       C  0.40262511  0.65383866  0.42038243     0.36330
C1444       C  0.55100160  0.81119291  0.46057056     0.36330
N1445       N  0.39455964  0.61775686  0.41166849    -0.38490
N1446       N  0.09118043  0.83038309  0.46713776    -0.38490
N1447       N  0.35321358  0.66529507  0.48101263    -0.37930
N1448       N  0.55279425  0.84991845  0.40119955    -0.37940
C1449       C  0.25373008  0.56224477  0.42140663    -0.04600
C1450       C  0.29243643  0.56025210  0.43160038    -0.01720
C1451       C  0.29312408  0.55452683  0.45540115     0.03270
C1452       C  0.24844342  0.52469047  0.46600949    -0.04600
C1453       C  0.20609174  0.50712650  0.45065428    -0.01710
C1454       C  0.20797389  0.53201046  0.43009822     0.03270
C1455       C  0.30871871  0.53393912  0.41785962     0.37920
C1456       C  0.17058987  0.45664023  0.45013603     0.37910
C1457       C  0.16393600  0.52181384  0.41688509     0.36330
C1458       C  0.34057714  0.57472807  0.46677842     0.36330
N1459       N  0.12866610  0.51353422  0.40629902    -0.38490
N1460       N  0.37916734  0.59076081  0.47546112    -0.38490
N1461       N  0.14461660  0.41543548  0.44772865    -0.37930
N1462       N  0.31976982  0.51137220  0.40667108    -0.37940
C1463       C  0.21239745  0.70240394  0.42070633    -0.04600
C1464       C  0.18476005  0.72418828  0.42556024    -0.01720
C1465       C  0.18751489  0.74424841  0.44849843     0.03270
C1466       C  0.21819933  0.74282403  0.46711239    -0.04600
C1467       C  0.24188348  0.71752757  0.46275515    -0.01710
C1468       C  0.23811212  0.69667070  0.44035604     0.03270
C1469       C  0.15783444  0.73092812  0.40637932     0.37920
C1470       C  0.27514016  0.71807781  0.48120846     0.37910
C1471       C  0.26516574  0.67271504  0.43847373     0.36330
C1472       C  0.16815236  0.77584491  0.45099072     0.36330
N1473       N  0.29039281  0.65719796  0.44135136    -0.38490
N1474       N  0.15497054  0.80327462  0.45177935    -0.38490
N1475       N  0.30221453  0.72051548  0.49606610    -0.37930
N1476       N  0.13637213  0.73639667  0.39106185    -0.37940
Zr1477     Zr  0.82603024  0.20621785  0.37709649     2.17510
O1478       O  0.86242012  0.25843919  0.41212059    -0.50590
O1479       O  0.79971010  0.13369116  0.40062057    -0.73800
O1480       O  0.77417051  0.22848674  0.39482312    -0.80580
O1481       O  0.94180935  0.21001281  0.37579418    -0.82330
O1482       O  0.70082120  0.17655749  0.37781366    -0.77950
O1483       O  0.91214597  0.25617804  0.38561878    -0.89590
O1484       O  0.73717071  0.06798662  0.38188629    -0.75550
O1485       O  0.75115657  0.13974008  0.36194083    -0.85040
O1486       O  0.84496941  0.14846401  0.36245455    -0.84730
O1487       O  0.79528395  0.24146989  0.34924435    -0.71490
O1488       O  0.88408643  0.25041677  0.34911418    -0.83620
Zr1489     Zr  0.79943189  0.15946847  0.29078492     2.26420
Zr1490     Zr  0.71919558  0.17332100  0.33475688     2.06270
Zr1491     Zr  0.90520498  0.19330692  0.33543902     2.10050
Zr1492     Zr  0.77017121  0.08375819  0.34495293     1.78760
O1493       O  0.98579954  0.26362800  0.33240487    -0.92430
O1494       O  0.68642966  0.01694550  0.33946386    -0.40240
O1495       O  0.83119420  0.12657261  0.31838144    -0.76870
O1496       O  0.73820366  0.11639495  0.31776483    -0.95560
O1497       O  0.77640743  0.21425282  0.30514252    -0.88860
O1498       O  0.87412289  0.22538336  0.30632765    -0.91700
C1499       C  0.76295435  0.08999989  0.40019960     1.02050
C1500       C  0.93715691  0.23687951  0.39087160     1.14980
C1501       C  0.72885780  0.20159161  0.39614034     1.05760
O1502       O  0.63377811  0.11314393  0.33739077    -0.93860
O1503       O  0.67800858  0.14720264  0.29434782    -0.89600
O1504       O  0.71940694  0.12111759  0.27309137    -0.82750
C1505       C  0.68405533  0.12797775  0.27566976     1.12400
O1506       O  0.87731670  0.35025814  0.34627332    -0.95830
Zr1507     Zr  0.85200212  0.28109706  0.31938099     1.88940
O1508       O  0.82047069  0.21759547  0.25979349    -0.72480
O1509       O  0.69661133  0.23512425  0.33207661    -0.51740
O1510       O  0.80485972  0.31764256  0.30614396    -0.96420
O1511       O  0.93583557  0.34618003  0.31687883    -0.53640
O1512       O  0.86641525  0.29201462  0.27712643    -0.73000
C1513       C  0.84996414  0.26352107  0.25870005     0.99350
O1514       O  0.78091096  0.08425375  0.27051050    -0.61820
O1515       O  0.93652280  0.13853486  0.34003953    -0.56620
O1516       O  0.86378895  0.15937743  0.27208194    -0.93300
O1517       O  0.92707722  0.17584003  0.29803323    -0.91730
O1518       O  0.80738665  0.04099103  0.36253876    -0.92080
O1519       O  0.76097507  0.01964605  0.31823326    -0.90870
C1520       C  0.90548980  0.16510272  0.27752022     1.18190
H1521       H  0.85796885  0.13634027  0.37431818     0.34130
H1522       H  0.70914693  0.08895949  0.31066106     0.44990
H1523       H  0.89745389  0.24013392  0.29460521     0.38510
H1524       H  0.78982598  0.26525705  0.35668379     0.34990
H1525       H  0.68419197  0.99242749  0.35051108     0.26780
H1526       H  0.66077412  0.21663832  0.32966906     0.32720
H1527       H  0.82825356  0.34749901  0.29856530     0.38630
H1528       H  0.78033692  0.00706474  0.36293904     0.33090
H1529       H  0.97011487  0.15910087  0.34689989     0.31960
H1530       H  0.00759459  0.25017848  0.33220910     0.33650
H1531       H  0.93440473  0.36747660  0.30485569     0.32610
H1532       H  0.73426571  0.01341739  0.30667115     0.36610
H1533       H  0.80050491  0.07258160  0.27896588     0.29340
H1534       H  0.83592615  0.24998798  0.42241258     0.33580
H1535       H  0.88012694  0.37673925  0.33648639     0.36430
H1536       H  0.91849067  0.11748265  0.35280247     0.29040
H1537       H  0.74708777  0.06029853  0.27383089     0.41910
H1538       H  0.63382120  0.08955279  0.34840105     0.31960
H1539       H  0.66673713  0.02947369  0.34602931     0.39580
H1540       H  0.95208506  0.33067031  0.30948012     0.31430
H1541       H  0.70298637  0.24954063  0.34811977     0.31500
H1542       H  0.87121090  0.29133509  0.40721655     0.31760
C1543       C  0.72090869  0.36155522  0.17220283     0.03020
C1544       C  0.72415693  0.40894621  0.17670443     0.03020
C1545       C  0.67756946  0.40917014  0.17518339     0.03020
C1546       C  0.63038001  0.36399311  0.17213067     0.03020
C1547       C  0.62899861  0.31822545  0.17218053     0.03020
C1548       C  0.67352563  0.31688431  0.17194709     0.03020
C1549       C  0.67093221  0.09600732  0.17853847     0.01300
C1550       C  0.67457969  0.12868563  0.16070412     0.01300
C1551       C  0.92561259  0.34007155  0.16607111     0.01300
C1552       C  0.89549284  0.34532506  0.14827789     0.01300
C1553       C  0.90964217  0.10399699  0.18481494     0.01300
C1554       C  0.94178579  0.12595706  0.16690946     0.01300
C1555       C  0.97865770  0.24127942  0.49066074     0.01300
C1556       C  0.98181407  0.27633001  0.50790797     0.01300
C1557       C  0.74779511  0.00629041  0.49068078     0.01300
C1558       C  0.71035927  0.49720340  0.50560638     0.01300
C1559       C  0.52412347  0.00124920  0.49003327     0.03020
C1560       C  0.97637976  0.45635358  0.49205797     0.03020
C1561       C  0.93147347  0.45734833  0.49435532     0.03020
C1562       C  0.93298876  0.00334265  0.49599057     0.03020
C1563       C  0.97891823  0.04876939  0.49490284     0.03020
C1564       C  0.52458509  0.04797072  0.49265842     0.03020
C1565       C  0.73068990  0.27027088  0.49098449     0.01300
C1566       C  0.70067509  0.24303750  0.50939569     0.01300
Zr1567     Zr  0.97698446  0.02903601  0.96168466     2.17510
O1568       O  0.93261822  0.06793872  0.94920433    -0.50590
O1569       O  0.50720087  0.00670091  0.92974217    -0.73800
O1570       O  0.52854928  0.09949721  0.94332104    -0.80580
O1571       O  0.85464291  0.43048443  0.95588943    -0.82330
O1572       O  0.58421266  0.15109920  0.97130896    -0.77950
O1573       O  0.91683163  0.97823255  0.93384940    -0.89590
O1574       O  0.53494964  0.95884962  0.94261456    -0.75550
O1575       O  0.55380455  0.04359954  0.97532362    -0.85040
O1576       O  0.95834349  0.44983613  0.96987858    -0.84730
O1577       O  0.49999829  0.08941131  0.99162134    -0.71490
O1578       O  0.91037938  0.00203028  0.98541042    -0.83620
Zr1579     Zr  0.49611331  0.99422346  0.04309624     2.26420
Zr1580     Zr  0.57609693  0.10173888  0.00675622     2.06270
Zr1581     Zr  0.89363807  0.42354545  0.99521231     2.10050
Zr1582     Zr  0.53508889  0.96428518  0.98518110     1.78760
O1583       O  0.80713885  0.38736283  0.00012092    -0.92430
O1584       O  0.61938845  0.99758874  0.97593662    -0.40240
O1585       O  0.97078873  0.43585908  0.01130571    -0.76870
O1586       O  0.56037352  0.02276075  0.01709361    -0.95560
O1587       O  0.51200505  0.07234075  0.03326889    -0.88860
O1588       O  0.91912962  0.98115883  0.02800399    -0.91700
C1589       C  0.52400703  0.97895242  0.92602625     1.02050
C1590       C  0.87185250  0.45180065  0.93630172     1.14980
C1591       C  0.56213498  0.14118793  0.95057566     1.05760
O1592       O  0.65738741  0.12290755  0.99685297    -0.93860
O1593       O  0.61694024  0.11435872  0.04643816    -0.89600
O1594       O  0.57201101  0.04437269  0.06515667    -0.82750
C1595       C  0.60844612  0.08725509  0.06424042     1.12400
O1596       O  0.90211197  0.09906673  0.99293309    -0.95830
Zr1597     Zr  0.93566683  0.05969919  0.01729083     1.88940
O1598       O  0.95611826  0.01873932  0.07086029    -0.72480
O1599       O  0.60683566  0.18452257  0.02113570    -0.51740
O1600       O  0.47387066  0.14519555  0.02899734    -0.96420
O1601       O  0.84854269  0.02416372  0.02053944    -0.53640
O1602       O  0.92507567  0.06387177  0.05767191    -0.73000
C1603       C  0.93602461  0.04425337  0.07407620     0.99350
O1604       O  0.53168423  0.46803621  0.07422644    -0.61820
O1605       O  0.87318944  0.34391125  0.97996545    -0.56620
O1606       O  0.95290650  0.40739876  0.04504739    -0.93300
O1607       O  0.87633596  0.38288682  0.03376952    -0.91730
O1608       O  0.50607402  0.37911171  0.97656888    -0.92080
O1609       O  0.57015510  0.43089006  0.01257776    -0.90870
C1610       C  0.90823975  0.38414865  0.04896763     1.18190
H1611       H  0.94750333  0.42874281  0.95604335     0.34130
H1612       H  0.58922538  0.02569906  0.02488670     0.44990
H1613       H  0.89490063  0.96838559  0.03941381     0.38510
H1614       H  0.50422250  0.11949942  0.98604103     0.34990
H1615       H  0.61941873  0.97142473  0.96666747     0.26780
H1616       H  0.63584339  0.20443842  0.01227462     0.32720
H1617       H  0.95048614  0.14761824  0.03874320     0.38630
H1618       H  0.53497232  0.37840781  0.97177838     0.33090
H1619       H  0.86746866  0.34490173  0.96290301     0.31960
H1620       H  0.79160917  0.35768258  0.98986245     0.33650
H1621       H  0.84519672  0.04863458  0.02955647     0.32610
H1622       H  0.60248065  0.45838014  0.01791016     0.36610
H1623       H  0.50522384  0.44055979  0.08180985     0.29340
H1624       H  0.89911743  0.04741956  0.95407474     0.33580
H1625       H  0.89138156  0.11541641  0.00378406     0.36430
H1626       H  0.90399822  0.34373631  0.98173443     0.29040
H1627       H  0.54798036  0.95347853  0.06599829     0.41910
H1628       H  0.65605677  0.12258830  0.97956193     0.31960
H1629       H  0.62549219  0.02285955  0.96457614     0.39580
H1630       H  0.83908472  0.99717666  0.03124613     0.31430
H1631       H  0.58252070  0.19266532  0.01496406     0.31500
H1632       H  0.94580294  0.09775349  0.95902773     0.31760
Zr1633     Zr  0.63326819  0.34866354  0.70523913     2.17510
O1634       O  0.67605687  0.43317477  0.71827877    -0.50590
O1635       O  0.60795985  0.29290387  0.73725654    -0.73800
O1636       O  0.58889016  0.38113093  0.71837053    -0.80580
O1637       O  0.75811856  0.38809617  0.70535425    -0.82330
O1638       O  0.51149168  0.33342569  0.70606356    -0.77950
O1639       O  0.69850557  0.36373551  0.73049717    -0.89590
O1640       O  0.58863842  0.21874548  0.72347693    -0.75550
O1641       O  0.55902178  0.27831960  0.69444406    -0.85040
O1642       O  0.66131581  0.29709680  0.69366614    -0.84730
O1643       O  0.59610539  0.37779145  0.67784713    -0.71490
O1644       O  0.69197241  0.39445366  0.67853467    -0.83620
Zr1645     Zr  0.60567409  0.29547262  0.62299703     2.26420
Zr1646     Zr  0.52271610  0.30643754  0.66569290     2.06270
Zr1647     Zr  0.71810108  0.34175876  0.66557522     2.10050
Zr1648     Zr  0.58746761  0.22678270  0.68107297     1.78760
O1649       O  0.79959079  0.40491433  0.65724619    -0.92430
O1650       O  0.50505258  0.16342696  0.68811103    -0.40240
O1651       O  0.64400549  0.26935688  0.65159299    -0.76870
O1652       O  0.54869642  0.25154426  0.65254312    -0.95560
O1653       O  0.57966458  0.34884713  0.63601992    -0.88860
O1654       O  0.67865925  0.36618999  0.63675581    -0.91700
C1655       C  0.59562427  0.24849872  0.74037771     1.02050
C1656       C  0.74265963  0.38822640  0.72620016     1.14980
C1657       C  0.54496575  0.36360917  0.72140217     1.05760
O1658       O  0.94606663  0.23147466  0.66938301    -0.93860
O1659       O  0.49279148  0.29634847  0.62381700    -0.89600
O1660       O  0.52089085  0.24938826  0.61347403    -0.82750
C1661       C  0.49881842  0.27122206  0.60810152     1.12400
O1662       O  0.68189539  0.49277796  0.67437089    -0.95830
Zr1663     Zr  0.65308502  0.41935706  0.65001579     1.88940
O1664       O  0.62111776  0.35379880  0.59202542    -0.72480
O1665       O  0.47410028  0.34503976  0.66152832    -0.51740
O1666       O  0.60382555  0.45642634  0.64235017    -0.96420
O1667       O  0.73583767  0.48301783  0.64352253    -0.53640
O1668       O  0.65100991  0.42827093  0.60939570    -0.73000
C1669       C  0.63981410  0.40016446  0.59156879     0.99350
O1670       O  0.58799273  0.22750680  0.59642932    -0.61820
O1671       O  0.75236036  0.29212228  0.67749303    -0.56620
O1672       O  0.66713393  0.29824759  0.60076039    -0.93300
O1673       O  0.73443591  0.32173009  0.62519333    -0.91730
O1674       O  0.62934754  0.18302251  0.69062068    -0.92080
O1675       O  0.56387577  0.15923699  0.65339059    -0.90870
C1676       C  0.71049077  0.30747617  0.60480634     1.18190
H1677       H  0.67673236  0.28952643  0.70650406     0.34130
H1678       H  0.52011467  0.22076132  0.64804093     0.44990
H1679       H  0.69963471  0.38089002  0.62419293     0.38510
H1680       H  0.58834394  0.40213820  0.68219865     0.34990
H1681       H  0.50914411  0.13974703  0.69742689     0.26780
H1682       H  0.44709817  0.32736988  0.67185866     0.32720
H1683       H  0.62451518  0.48573278  0.63367094     0.38630
H1684       H  0.60401593  0.15186777  0.69649421     0.33090
H1685       H  0.76003024  0.29904381  0.69452372     0.31960
H1686       H  0.82066928  0.39218631  0.66267212     0.33650
H1687       H  0.73483185  0.49331792  0.62738732     0.32610
H1688       H  0.53696530  0.15711085  0.64317557     0.36610
H1689       H  0.60335177  0.21097033  0.60444667     0.29340
H1690       H  0.66047811  0.44987319  0.71073335     0.33580
H1691       H  0.69075880  0.51952678  0.66356118     0.36430
H1692       H  0.72450006  0.25849969  0.67612083     0.29040
H1693       H  0.55298388  0.20353422  0.59658328     0.41910
H1694       H  0.94276819  0.22828999  0.68644492     0.31960
H1695       H  0.49352619  0.17862217  0.69920987     0.39580
H1696       H  0.75464478  0.46633486  0.64297743     0.31430
H1697       H  0.49446020  0.37753272  0.66924583     0.31500
H1698       H  0.70783645  0.44805952  0.71123989     0.31760
C1699       C  0.81079464  0.42109021  0.83987299     0.01300
C1700       C  0.81000259  0.45272687  0.82270336     0.01300
C1701       C  0.77420230  0.19155399  0.83779463     0.03020
C1702       C  0.81837768  0.23655183  0.83217818     0.03020
C1703       C  0.86462716  0.23859736  0.82767560     0.03020
C1704       C  0.86632276  0.19351610  0.82999486     0.03020
C1705       C  0.81984739  0.14764241  0.83110483     0.03020
C1706       C  0.77398782  0.14653298  0.83417294     0.03020
C1707       C  0.58776176  0.18877036  0.85699196     0.01300
C1708       C  0.55854124  0.19234420  0.83828441     0.01300
C1709       C  0.57315457  0.46692964  0.83022619     0.01300
C1710       C  0.54105578  0.43430423  0.81238004     0.01300
C1711       C  0.91604700  0.19339639  0.83261045    -0.04600
C1712       C  0.92913401  0.16776129  0.81678043    -0.01720
C1713       C  0.97042086  0.16204806  0.82140753     0.03270
C1714       C  0.00771199  0.18998372  0.83912787    -0.04600
C1715       C  0.99717357  0.21928075  0.85395068    -0.01710
C1716       C  0.95093796  0.21731406  0.85189861     0.03270
C1717       C  0.90577627  0.15278038  0.79363153     0.37920
C1718       C  0.03259751  0.25044876  0.87224905     0.37910
C1719       C  0.93882693  0.23747706  0.87113699     0.36330
C1720       C  0.97415128  0.12624577  0.80743874     0.36330
N1721       N  0.93150045  0.25231685  0.88788010    -0.38490
N1722       N  0.97651904  0.09732591  0.79632237    -0.38490
N1723       N  0.56018919  0.27563662  0.88703394    -0.37930
N1724       N  0.89164795  0.14234305  0.77426476    -0.37940
C1725       C  0.72663999  0.19058808  0.84585675    -0.04600
C1726       C  0.69210963  0.15556270  0.86047512    -0.01720
C1727       C  0.64592053  0.15275072  0.86320177     0.03270
C1728       C  0.63560182  0.18794560  0.85306588    -0.04600
C1729       C  0.67699060  0.22817302  0.84433140    -0.01710
C1730       C  0.72295660  0.23227680  0.84804308     0.03270
C1731       C  0.71303710  0.14588638  0.88114007     0.37920
C1732       C  0.67736623  0.27201411  0.83974916     0.37910
C1733       C  0.74880083  0.26031690  0.86933436     0.36330
C1734       C  0.61655057  0.12237915  0.88116272     0.36330
N1735       N  0.76852986  0.27996241  0.88698599    -0.38490
N1736       N  0.59774365  0.10131332  0.89734076    -0.38490
N1737       N  0.68059959  0.30892107  0.83662100    -0.37930
N1738       N  0.72911545  0.14207958  0.89896960    -0.37940
C1739       C  0.72413400  0.09811104  0.83186281    -0.04600
C1740       C  0.68969433  0.08883725  0.81292986    -0.01720
C1741       C  0.64077025  0.04815581  0.81210646     0.03270
C1742       C  0.62590027  0.01115929  0.82876393    -0.04600
C1743       C  0.66300079  0.01782511  0.84589013    -0.01710
C1744       C  0.70884409  0.06170007  0.84862069     0.03270
C1745       C  0.70512620  0.11951871  0.79311749     0.37920
C1746       C  0.65670894  0.97831868  0.86020577     0.37910
C1747       C  0.73689508  0.06978357  0.87042148     0.36330
C1748       C  0.60826311  0.04355503  0.79250289     0.36330
N1749       N  0.75504558  0.07359920  0.88889786    -0.38490
N1750       N  0.58519525  0.04353592  0.77632172    -0.38490
N1751       N  0.65501241  0.44846043  0.87198358    -0.37930
N1752       N  0.71616781  0.14154870  0.77641065    -0.37940
C1753       C  0.99721322  0.38422463  0.81804715    -0.04600
C1754       C  0.99692221  0.34085796  0.81268189    -0.01720
C1755       C  0.95360732  0.29382027  0.81259686     0.03270
C1756       C  0.91117054  0.28885236  0.82185506    -0.04600
C1757       C  0.91015113  0.33214510  0.81828855    -0.01710
C1758       C  0.95238259  0.37734607  0.82375598     0.03270
C1759       C  0.04255008  0.34686737  0.80782517     0.37920
C1760       C  0.88693218  0.33242064  0.79602967     0.37910
C1761       C  0.94805368  0.41643199  0.83271211     0.36330
C1762       C  0.94326173  0.26410123  0.79185167     0.36330
N1763       N  0.94375946  0.44751327  0.84011898    -0.38490
N1764       N  0.93178684  0.24329874  0.77395130    -0.38490
N1765       N  0.87011432  0.33281746  0.77775808    -0.37930
N1766       N  0.58267037  0.35995298  0.80514559    -0.37940
C1767       C  0.81895452  0.09935652  0.82941536    -0.04600
C1768       C  0.80962633  0.07313666  0.80817214    -0.01720
C1769       C  0.82005850  0.03487615  0.80684595     0.03270
C1770       C  0.81482525  0.00514437  0.82663105    -0.04600
C1771       C  0.81316383  0.02833675  0.84811213    -0.01710
C1772       C  0.82778448  0.07859350  0.84907499     0.03270
C1773       C  0.79421565  0.08829010  0.78741546     0.37920
C1774       C  0.78444904  0.00257199  0.86714110     0.37910
C1775       C  0.84709692  0.10760358  0.87059580     0.36330
C1776       C  0.84382718  0.03322429  0.78633971     0.36330
N1777       N  0.86234554  0.13230216  0.88737036    -0.38490
N1778       N  0.86357329  0.03347802  0.76993811    -0.38490
N1779       N  0.76213498  0.48661043  0.88332775    -0.37930
N1780       N  0.78261421  0.10105725  0.77080602    -0.37940
C1781       C  0.81334936  0.37333224  0.83599076    -0.04600
C1782       C  0.84186305  0.36191928  0.85252981    -0.01720
C1783       C  0.84164433  0.31759069  0.85133077     0.03270
C1784       C  0.81719939  0.28356833  0.83280207    -0.04600
C1785       C  0.79130296  0.29443702  0.81558292    -0.01710
C1786       C  0.78631753  0.33616986  0.81789449     0.03270
C1787       C  0.87388426  0.39412779  0.87158337     0.37920
C1788       C  0.76895503  0.26222282  0.79513356     0.37910
C1789       C  0.74824992  0.33467657  0.80259113     0.36330
C1790       C  0.86406143  0.30529945  0.87067069     0.36330
N1791       N  0.71623468  0.32853413  0.78983778    -0.38490
N1792       N  0.88027945  0.29737846  0.88730503    -0.38490
N1793       N  0.75159862  0.23928642  0.77799152    -0.37930
N1794       N  0.90157674  0.41640291  0.88694434    -0.37940
C1795       C  0.77283483  0.41752012  0.74781551    -0.04600
C1796       C  0.75049277  0.43478991  0.76300569    -0.01720
C1797       C  0.75500455  0.43182869  0.78722358     0.03270
C1798       C  0.79678453  0.43460571  0.79731620    -0.04600
C1799       C  0.82612285  0.42693807  0.78208258    -0.01710
C1800       C  0.81112733  0.41305119  0.75798681     0.03270
C1801       C  0.73945867  0.47093904  0.75545883     0.37920
C1802       C  0.87205881  0.43556399  0.79057098     0.37910
C1803       C  0.83470171  0.39467895  0.74381320     0.36330
C1804       C  0.71767738  0.42628805  0.80227309     0.36330
N1805       N  0.85269393  0.37941828  0.73218615    -0.38490
N1806       N  0.68940458  0.41965356  0.81572315    -0.38490
N1807       N  0.91032188  0.44422321  0.79658573    -0.37930
N1808       N  0.73263922  0.50193660  0.75040741    -0.37940
C1809       C  0.58838332  0.23172832  0.76525683    -0.04600
C1810       C  0.57388346  0.25460151  0.78124203    -0.01720
C1811       C  0.57574986  0.24736891  0.80528977     0.03270
C1812       C  0.57757764  0.20767964  0.81374725    -0.04600
C1813       C  0.59039772  0.18271553  0.79773083    -0.01710
C1814       C  0.59793820  0.19599972  0.77390860     0.03270
C1815       C  0.54732257  0.27635844  0.77203474     0.37920
C1816       C  0.60210142  0.14814031  0.80604543     0.37910
C1817       C  0.61538487  0.17285095  0.75856334     0.36330
C1818       C  0.58487774  0.28405607  0.82251251     0.36330
N1819       N  0.62937238  0.15423212  0.74642264    -0.38490
N1820       N  0.59635918  0.31162091  0.83805691    -0.38490
N1821       N  0.61585347  0.12374607  0.81332795    -0.37930
N1822       N  0.52566474  0.29142192  0.76232753    -0.37940
C1823       C  0.54027111  0.38391393  0.74434113    -0.04600
C1824       C  0.50589006  0.39759372  0.74833164    -0.01720
C1825       C  0.51100237  0.42497542  0.76920823     0.03270
C1826       C  0.55003800  0.43802356  0.78635097    -0.04600
C1827       C  0.58944171  0.43565918  0.77868100    -0.01710
C1828       C  0.58177397  0.40290231  0.76066643     0.03270
C1829       C  0.46853060  0.38762959  0.73023920     0.37920
C1830       C  0.63865395  0.46622641  0.78829464     0.37910
C1831       C  0.61653642  0.38653891  0.76080976     0.36330
C1832       C  0.48959819  0.45502727  0.76838608     0.36330
N1833       N  0.64405551  0.37352734  0.76271007    -0.38490
N1834       N  0.47652683  0.48234774  0.76549544    -0.38490
N1835       N  0.67926880  0.49150714  0.79398896    -0.37930
N1836       N  0.43920476  0.37983637  0.71549180    -0.37940
C1837       C  0.81684380  0.43583213  0.86527736    -0.04600
C1838       C  0.85995844  0.47654850  0.87396649    -0.01720
C1839       C  0.86725341  0.48682059  0.89800880     0.03270
C1840       C  0.84289896  0.44953436  0.91403741    -0.04600
C1841       C  0.79773617  0.41021822  0.90584701    -0.01710
C1842       C  0.78271479  0.40667173  0.88159437     0.03270
C1843       C  0.89660323  0.00674747  0.85820143     0.37920
C1844       C  0.76631129  0.37693978  0.92243950     0.37910
C1845       C  0.73214449  0.38718853  0.87476870     0.36330
C1846       C  0.88475350  0.03605597  0.90518901     0.36330
N1847       N  0.69200439  0.37561874  0.87021338    -0.38490
N1848       N  0.89501687  0.07535381  0.90977121    -0.38490
N1849       N  0.74180089  0.35087207  0.93613688    -0.37930
N1850       N  0.92444133  0.02886097  0.84464674    -0.37940
C1851       C  0.57903632  0.18970102  0.88319869    -0.04600
C1852       C  0.53345832  0.16537013  0.89332126    -0.01720
C1853       C  0.53197834  0.16926601  0.91772069     0.03270
C1854       C  0.57221200  0.17727196  0.93246033    -0.04600
C1855       C  0.61750008  0.20270999  0.92333582    -0.01710
C1856       C  0.61990816  0.21484701  0.89967002     0.03270
C1857       C  0.48809301  0.13646884  0.88005628     0.37920
C1858       C  0.66112469  0.21684471  0.93799440     0.37910
C1859       C  0.66096421  0.25900941  0.89402159     0.36330
C1860       C  0.99103080  0.16831674  0.92772438     0.36330
N1861       N  0.69367925  0.29653447  0.89120296    -0.38490
N1862       N  0.95936791  0.17037289  0.93539806    -0.38490
N1863       N  0.69605368  0.22805860  0.94963658    -0.37930
N1864       N  0.95064740  0.11400548  0.87003960    -0.37940
C1865       C  0.53111666  0.97074556  0.90093754    -0.04600
C1866       C  0.52566410  0.99830184  0.88299452    -0.01720
C1867       C  0.54198011  0.49861596  0.86066752     0.03270
C1868       C  0.55427213  0.46407529  0.85409642    -0.04600
C1869       C  0.54940957  0.42934288  0.87052280    -0.01710
C1870       C  0.54184609  0.43489036  0.89414402     0.03270
C1871       C  0.00154492  0.02525047  0.88691817     0.37920
C1872       C  0.55113342  0.38705342  0.86374227     0.37910
C1873       C  0.54382477  0.40222515  0.91095039     0.36330
C1874       C  0.03844167  0.02955680  0.84333017     0.36330
N1875       N  0.54588634  0.37596563  0.92403827    -0.38490
N1876       N  0.03142207  0.05196591  0.82969097    -0.38490
N1877       N  0.55108683  0.35168347  0.86001671    -0.37930
N1878       N  0.98304446  0.04696886  0.89125689    -0.37940
C1879       C  0.72886681  0.29560793  0.58365462    -0.04600
C1880       C  0.73963857  0.32666528  0.56476488    -0.01720
C1881       C  0.72287296  0.30815961  0.54133872     0.03270
C1882       C  0.70536489  0.25967934  0.53549276    -0.04600
C1883       C  0.68883467  0.22818355  0.55481819    -0.01710
C1884       C  0.70707175  0.24594745  0.57799860     0.03270
C1885       C  0.78026722  0.37454632  0.56902842     0.37920
C1886       C  0.64067585  0.18597016  0.55368108     0.37910
C1887       C  0.69500299  0.21232252  0.59680872     0.36330
C1888       C  0.70814315  0.33186104  0.52444357     0.36330
N1889       N  0.68518212  0.18554069  0.61177810    -0.38490
N1890       N  0.69280901  0.34558209  0.50962047    -0.38490
N1891       N  0.60165350  0.15334430  0.55435312    -0.37930
N1892       N  0.81451756  0.41198279  0.57329273    -0.37940
C1893       C  0.57308889  0.09714194  0.49547602    -0.04600
C1894       C  0.58145380  0.13802808  0.48252316    -0.01720
C1895       C  0.61650266  0.18469175  0.49104664     0.03270
C1896       C  0.65837123  0.19193026  0.50342926    -0.04600
C1897       C  0.65741504  0.15038702  0.51201167    -0.01710
C1898       C  0.61190711  0.10567059  0.51192631     0.03270
C1899       C  0.57327273  0.13375968  0.45748888     0.37920
C1900       C  0.70133033  0.15763322  0.52406619     0.37910
C1901       C  0.60426586  0.07032331  0.52918877     0.36330
C1902       C  0.60605270  0.22325936  0.49029551     0.36330
N1903       N  0.59643074  0.04160880  0.54299969    -0.38490
N1904       N  0.59810341  0.25456644  0.49109898    -0.38490
N1905       N  0.73880823  0.16909382  0.53323255    -0.37930
N1906       N  0.56993175  0.13275749  0.43726589    -0.37940
C1907       C  0.88100128  0.40873709  0.49406314    -0.04600
C1908       C  0.85890443  0.38408501  0.51445049    -0.01720
C1909       C  0.81528879  0.33705404  0.51319153     0.03270
C1910       C  0.78245392  0.31947687  0.49277092    -0.04600
C1911       C  0.80421024  0.34702743  0.47243800    -0.01710
C1912       C  0.85374332  0.38589625  0.47293793     0.03270
C1913       C  0.88061495  0.40626550  0.53710426     0.37920
C1914       C  0.77838916  0.33777444  0.44981037     0.37910
C1915       C  0.87538234  0.40203829  0.45082794     0.36330
C1916       C  0.81045297  0.30469593  0.53158038     0.36330
N1917       N  0.88834131  0.41230925  0.43216688    -0.38490
N1918       N  0.80769143  0.27933903  0.54641172    -0.38490
N1919       N  0.76293103  0.33479768  0.43077824    -0.37930
N1920       N  0.89707069  0.42337636  0.55552980    -0.37940
C1921       C  0.65886460  0.42566831  0.56986769    -0.04600
C1922       C  0.70037192  0.42702560  0.56246410    -0.01720
C1923       C  0.71825230  0.44674406  0.54085803     0.03270
C1924       C  0.70648960  0.48063105  0.53100300    -0.04600
C1925       C  0.68184287  0.49520226  0.54595640    -0.01710
C1926       C  0.65426110  0.46555564  0.56377413     0.03270
C1927       C  0.73524465  0.43288697  0.58118881     0.37920
C1928       C  0.69568099  0.54512174  0.54762731     0.37910
C1929       C  0.62556521  0.47942066  0.57712466     0.36330
C1930       C  0.75363507  0.43655926  0.53260396     0.36330
N1931       N  0.60323423  0.49145857  0.58755245    -0.38490
N1932       N  0.78248211  0.42723425  0.52735659    -0.38490
N1933       N  0.70782822  0.58488228  0.55203451    -0.37930
N1934       N  0.76211456  0.44125366  0.59721172    -0.37940
C1935       C  0.79130966  0.49898711  0.49612719    -0.04600
C1936       C  0.80215998  0.47368183  0.47918946    -0.01720
C1937       C  0.85052153  0.48459610  0.47740174     0.03270
C1938       C  0.88451203  0.00300271  0.49680225    -0.04600
C1939       C  0.86969724  0.01850070  0.51654082    -0.01710
C1940       C  0.82791237  0.02419995  0.51453913     0.03270
C1941       C  0.76565378  0.44094173  0.46168385     0.37920
C1942       C  0.89059479  0.01992996  0.53960207     0.37910
C1943       C  0.81945452  0.04959408  0.53295690     0.36330
C1944       C  0.86710516  0.48763277  0.45433345     0.36330
N1945       N  0.81218471  0.06896355  0.54796229    -0.38490
N1946       N  0.87899347  0.49131600  0.43542867    -0.38490
N1947       N  0.90449374  0.01929212  0.55853716    -0.37930
N1948       N  0.73761428  0.41433400  0.44745593    -0.37940
C1949       C  0.66407442  0.49890090  0.49699933    -0.04600
C1950       C  0.66420437  0.04068438  0.48933180    -0.01720
C1951       C  0.61986795  0.03913475  0.48174619     0.03270
C1952       C  0.57329123  0.99921556  0.48701828    -0.04600
C1953       C  0.57570732  0.45590384  0.48660386    -0.01710
C1954       C  0.61810753  0.45626013  0.49603362     0.03270
C1955       C  0.71029410  0.08437526  0.48825427     0.37920
C1956       C  0.56317698  0.43211655  0.46383142     0.37910
C1957       C  0.61659404  0.41147873  0.50121154     0.36330
C1958       C  0.62313985  0.06801390  0.46206197     0.36330
N1959       N  0.61801464  0.37815576  0.50772460    -0.38490
N1960       N  0.62901469  0.08996361  0.44542777    -0.38490
N1961       N  0.05710839  0.41536716  0.44514487    -0.37930
N1962       N  0.74872169  0.11775749  0.48780457    -0.37940
C1963       C  0.49118624  0.27376829  0.58247928    -0.04600
C1964       C  0.51064804  0.31929155  0.57264028    -0.01720
C1965       C  0.52055125  0.32420173  0.54865830     0.03270
C1966       C  0.00436598  0.28228759  0.53348611    -0.04600
C1967       C  0.00184271  0.24342410  0.54533454    -0.01710
C1968       C  0.48451713  0.23469123  0.56789860     0.03270
C1969       C  0.51894665  0.36069810  0.58694627     0.37920
C1970       C  0.04070410  0.23410827  0.54190873     0.37910
C1971       C  0.46497871  0.18657849  0.57682533     0.37140
C1972       C  0.54615872  0.37263310  0.54073902     0.36330
N1973       N  0.94864111  0.14829348  0.58419460    -0.38490
N1974       N  0.56422500  0.41309204  0.53672073    -0.38490
N1975       N  0.07262995  0.22752151  0.53987383    -0.37930
N1976       N  0.52437985  0.39298227  0.59852934    -0.37940
C1977       C  0.98151462  0.19265231  0.49302510    -0.04600
C1978       C  0.96222457  0.15976250  0.51143059    -0.01720
C1979       C  0.97206045  0.12078458  0.51416832     0.03270
C1980       C  0.97786898  0.09742070  0.49440964    -0.04600
C1981       C  0.98030074  0.12097126  0.47337796    -0.01710
C1982       C  0.99208616  0.17063211  0.47359840     0.03270
C1983       C  0.92345257  0.15848275  0.52372595     0.37920
C1984       C  0.47059158  0.09490341  0.45117770     0.37910
C1985       C  0.51706179  0.19714928  0.45360392     0.36330
C1986       C  0.98417067  0.11131219  0.53723292     0.36330
N1987       N  0.53793632  0.21585517  0.43735682    -0.38490
N1988       N  0.99591134  0.10521858  0.55569378    -0.38490
N1989       N  0.46459558  0.07649684  0.43290695    -0.37930
N1990       N  0.89248113  0.15916134  0.53292428    -0.37940
C1991       C  0.96364634  0.31368828  0.50231428    -0.04600
C1992       C  0.95267042  0.33756251  0.51992405    -0.01720
C1993       C  0.96498186  0.38664938  0.51735414     0.03270
C1994       C  0.97155828  0.40656084  0.49498089    -0.04600
C1995       C  0.96222647  0.37364098  0.47598592    -0.01710
C1996       C  0.95365199  0.32624894  0.47997586     0.03270
C1997       C  0.92565416  0.31112439  0.53946267     0.37920
C1998       C  0.96002182  0.38614095  0.45197431     0.37910
C1999       C  0.90824491  0.29063907  0.46879746     0.36330
C2000       C  0.97868678  0.41832296  0.53793159     0.36330
N2001       N  0.86994604  0.26375472  0.46079132    -0.38490
N2002       N  0.99256303  0.44434291  0.55426547    -0.38490
N2003       N  0.96106245  0.39426787  0.43231578    -0.37930
N2004       N  0.90397596  0.28966244  0.55501024    -0.37940
C2005       C  0.93411423  0.09823237  0.14349253    -0.04600
C2006       C  0.89200127  0.08001849  0.12765143    -0.01720
C2007       C  0.89166503  0.06243420  0.10473024     0.03270
C2008       C  0.92956792  0.05538371  0.09857698    -0.04600
C2009       C  0.46586128  0.06455120  0.11568163    -0.01710
C2010       C  0.97257067  0.09290307  0.13573714     0.03270
C2011       C  0.84846204  0.07875766  0.13345346     0.37920
C2012       C  0.49496330  0.04295116  0.11233248     0.37910
C2013       C  0.52190983  0.12607117  0.14388267     0.36330
C2014       C  0.85080952  0.04877859  0.08801174     0.36330
N2015       N  0.56147171  0.15625718  0.14873119    -0.38490
N2016       N  0.81786533  0.03789855  0.07494673    -0.38490
N2017       N  0.51486417  0.02309691  0.10700743    -0.37930
N2018       N  0.80994477  0.07186499  0.13571903    -0.37940
C2019       C  0.90306141  0.34924689  0.12213027    -0.04600
C2020       C  0.92876470  0.39526940  0.11346194    -0.01720
C2021       C  0.91559340  0.40424864  0.09096125     0.03270
C2022       C  0.89738899  0.36768323  0.07351813    -0.04600
C2023       C  0.87790452  0.31974810  0.08063187    -0.01710
C2024       C  0.87636331  0.31038725  0.10511443     0.03270
C2025       C  0.97052990  0.43081933  0.12760078     0.37920
C2026       C  0.85958361  0.28082978  0.06306480     0.37910
C2027       C  0.85627622  0.26113407  0.11172236     0.36330
C2028       C  0.89024119  0.43049364  0.08938985     0.36330
N2029       N  0.84184849  0.22083800  0.11513079    -0.38490
N2030       N  0.86517076  0.94666292  0.08769169    -0.38490
N2031       N  0.84515040  0.24972157  0.04901979    -0.37930
N2032       N  0.00319571  0.45582749  0.14038902    -0.37940
C2033       C  0.66167690  0.11093681  0.13570175    -0.04600
C2034       C  0.69332995  0.11239150  0.11900170    -0.01720
C2035       C  0.67813291  0.10552954  0.09466410     0.03270
C2036       C  0.63582294  0.10679067  0.08730191    -0.04600
C2037       C  0.60884531  0.11158427  0.10452179    -0.01710
C2038       C  0.61666991  0.10297423  0.12783023     0.03270
C2039       C  0.74102174  0.12347041  0.12694711     0.37920
C2040       C  0.57901655  0.13223757  0.09828392     0.37910
C2041       C  0.57883385  0.07836477  0.14382727     0.36330
C2042       C  0.70703355  0.10072360  0.07748785     0.36330
N2043       N  0.55066588  0.05624212  0.15724859    -0.38490
N2044       N  0.73025878  0.09704339  0.06371146    -0.38490
N2045       N  0.55667618  0.15007969  0.09263556    -0.37930
N2046       N  0.77954214  0.13431045  0.13417521    -0.37940
C2047       C  0.66962543  0.26722285  0.16844365    -0.04600
C2048       C  0.68075884  0.25407418  0.14715771    -0.01720
C2049       C  0.68733785  0.21324435  0.14537387     0.03270
C2050       C  0.67259321  0.17734627  0.16335716    -0.04600
C2051       C  0.64876973  0.18616310  0.18137687    -0.01710
C2052       C  0.65645507  0.23296128  0.18614001     0.03270
C2053       C  0.68903977  0.28480968  0.12737438     0.37920
C2054       C  0.60747720  0.14664774  0.19140220     0.37910
C2055       C  0.65782798  0.24648580  0.21027799     0.36330
C2056       C  0.71036946  0.21144650  0.12458223     0.36330
N2057       N  0.66138658  0.25646648  0.22999512    -0.38490
N2058       N  0.73004818  0.21421256  0.10777180    -0.38490
N2059       N  0.57388868  0.11434045  0.19883770    -0.37930
N2060       N  0.69594363  0.30914243  0.11154512    -0.37940
C2061       C  0.67675990  0.45689425  0.17537940    -0.04600
C2062       C  0.67815748  0.48145293  0.19619309    -0.01720
C2063       C  0.68771618  0.52987548  0.19552373     0.03270
C2064       C  0.67393789  0.04784152  0.17544882    -0.04600
C2065       C  0.66212674  0.01642702  0.15493933    -0.01710
C2066       C  0.67377984  0.47881027  0.15458131     0.03270
C2067       C  0.67551930  0.46045745  0.21867157     0.37920
C2068       C  0.62817528  0.01123264  0.13612180     0.37910
C2069       C  0.68376991  0.46416255  0.13265754     0.36330
C2070       C  0.71658932  0.06191935  0.21501665     0.36330
N2071       N  0.69331229  0.45451109  0.11499190    -0.38490
N2072       N  0.74031922  0.08868566  0.23016857    -0.38490
N2073       N  0.60062950  0.00301502  0.12041539    -0.37930
N2074       N  0.67547338  0.44660398  0.23724146    -0.37940
C2075       C  0.57979650  0.27027543  0.17119169    -0.04600
C2076       C  0.55106313  0.24976664  0.15007889    -0.01720
C2077       C  0.50337470  0.20848250  0.15018372     0.03270
C2078       C  0.48932976  0.17659677  0.16932437    -0.04600
C2079       C  0.52385747  0.19326336  0.18903125    -0.01710
C2080       C  0.56175076  0.24256252  0.19120679     0.03270
C2081       C  0.57179013  0.26619420  0.12786862     0.37920
C2082       C  0.52066068  0.16260845  0.20801826     0.37910
C2083       C  0.57806463  0.26431385  0.21446633     0.36330
C2084       C  0.96995316  0.19884629  0.13012456     0.36330
N2085       N  0.58849694  0.27824367  0.23375862    -0.38490
N2086       N  0.94358593  0.19200580  0.11406885    -0.38490
N2087       N  0.51998229  0.14077236  0.22411319    -0.37930
N2088       N  0.58738954  0.27648300  0.10967909    -0.37940
C2089       C  0.86316488  0.05338861  0.18111116    -0.04600
C2090       C  0.86517230  0.51038613  0.17947316    -0.01720
C2091       C  0.82250565  0.46386018  0.18267203     0.03270
C2092       C  0.77517728  0.45847745  0.18150603    -0.04600
C2093       C  0.77899519  0.50105719  0.19130858    -0.01710
C2094       C  0.81706225  0.04679446  0.18520245     0.03270
C2095       C  0.91291799  0.51620182  0.17901210     0.37920
C2096       C  0.77816365  0.50067866  0.21650159     0.37910
C2097       C  0.80886962  0.08692602  0.18485744     0.36330
C2098       C  0.82928496  0.43332633  0.19876703     0.36330
N2099       N  0.80080516  0.11802532  0.18287108    -0.38490
N2100       N  0.83419590  0.41083305  0.21310621    -0.38490
N2101       N  0.78066594  0.50166232  0.23672670    -0.37930
N2102       N  0.95270664  0.52494296  0.17906411    -0.37940
C2103       C  0.58086365  0.36334770  0.16976816    -0.04600
C2104       C  0.55527449  0.35855479  0.14798381    -0.01720
C2105       C  0.50508419  0.34691060  0.14615348     0.03270
C2106       C  0.48062738  0.35042439  0.16591750    -0.04600
C2107       C  0.51094068  0.36258224  0.18753441    -0.01710
C2108       C  0.55619062  0.36320974  0.18942863     0.03270
C2109       C  0.58018262  0.36538763  0.12675817     0.37920
C2110       C  0.99966040  0.37773106  0.20898450     0.37910
C2111       C  0.57638390  0.36324314  0.21254633     0.36330
C2112       C  0.48015585  0.32661026  0.12372874     0.36330
N2113       N  0.58842413  0.36278234  0.23183366    -0.38490
N2114       N  0.46567435  0.31030473  0.10498426    -0.38490
N2115       N  0.99591297  0.39105001  0.22716526    -0.37930
N2116       N  0.59810378  0.37075493  0.10916875    -0.37940
C2117       C  0.76529078  0.35683588  0.16544389    -0.04600
C2118       C  0.79680770  0.38530127  0.14825185    -0.01720
C2119       C  0.84253074  0.38799022  0.14656458     0.03270
C2120       C  0.85054647  0.35005668  0.15411054    -0.04600
C2121       C  0.81143128  0.31362740  0.16518372    -0.01710
C2122       C  0.77672321  0.32257991  0.17512691     0.03270
C2123       C  0.78520539  0.41527071  0.13374834     0.37920
C2124       C  0.79977629  0.26508111  0.16004575     0.37910
C2125       C  0.76670309  0.30900988  0.19880114     0.36330
C2126       C  0.88175403  0.43381302  0.14090877     0.36330
N2127       N  0.76311846  0.30151503  0.21846246    -0.38490
N2128       N  0.91156895  0.47204896  0.13639799    -0.38490
N2129       N  0.79060065  0.22639517  0.15468708    -0.37930
N2130       N  0.77688176  0.43956789  0.12195859    -0.37940
C2131       C  0.86710724  0.28378136  0.23461077    -0.04600
C2132       C  0.86993222  0.25424392  0.21680386    -0.01720
C2133       C  0.88471684  0.27162863  0.19420327     0.03270
C2134       C  0.90163379  0.32031025  0.18913236    -0.04600
C2135       C  0.89772214  0.34975086  0.20641942    -0.01710
C2136       C  0.88110517  0.33203298  0.22891514     0.03270
C2137       C  0.85394304  0.20421916  0.22110754     0.37920
C2138       C  0.91821127  0.40052125  0.20223899     0.37910
C2139       C  0.87998846  0.36442874  0.24626843     0.36330
C2140       C  0.87952369  0.23835025  0.17550205     0.36330
N2141       N  0.87955218  0.39079505  0.26001152    -0.38490
N2142       N  0.87597949  0.21159754  0.16080994    -0.38490
N2143       N  0.93724437  0.44153739  0.19934538    -0.37930
N2144       N  0.83982710  0.16428199  0.22536485    -0.37940
C2145       C  0.65828693  0.12366907  0.25276005    -0.04600
C2146       C  0.68705516  0.16190041  0.23857861    -0.01720
C2147       C  0.69486411  0.15161749  0.21583103     0.03270
C2148       C  0.66376530  0.10649154  0.20396118    -0.04600
C2149       C  0.62683999  0.07009431  0.21727845    -0.01710
C2150       C  0.62659070  0.07773254  0.24181443     0.03270
C2151       C  0.71757727  0.20994392  0.24961633     0.37920
C2152       C  0.59018456  0.02457011  0.20597762     0.37910
C2153       C  0.59588989  0.03790398  0.25607807     0.36330
C2154       C  0.73831869  0.18638983  0.20616998     0.36330
N2155       N  0.57139339  0.00601765  0.26749564    -0.38490
N2156       N  0.77466962  0.21641910  0.20023882    -0.38490
N2157       N  0.56100374  0.98842212  0.19674690    -0.37930
N2158       N  0.74130441  0.24714015  0.25935958    -0.37940
C2159       C  0.92749061  0.15664130  0.25781752    -0.04600
C2160       C  0.91487114  0.10912955  0.25262664    -0.01720
C2161       C  0.91367162  0.09388536  0.22942721     0.03270
C2162       C  0.91927088  0.12471906  0.21022261    -0.04600
C2163       C  0.93547212  0.17442170  0.21657001    -0.01710
C2164       C  0.94268607  0.19021529  0.24029267     0.03270
C2165       C  0.90177328  0.07533449  0.27147892     0.37920
C2166       C  0.94883017  0.21208493  0.20007180     0.37910
C2167       C  0.96189658  0.24095275  0.24691674     0.36330
C2168       C  0.91348863  0.04895913  0.22722191     0.36330
N2169       N  0.97716493  0.28125879  0.25219767    -0.38490
N2170       N  0.91518704  0.01386674  0.22856337    -0.38490
N2171       N  0.46599402  0.24607139  0.18891330    -0.37930
N2172       N  0.89128287  0.04847648  0.28644531    -0.37940
C2173       C  0.95245157  0.23956392  0.41597869    -0.04600
C2174       C  0.99208916  0.28133635  0.42685329    -0.01720
C2175       C  0.00206705  0.28230598  0.45128467     0.03270
C2176       C  0.96735878  0.24685985  0.46539863    -0.04600
C2177       C  0.92480041  0.20917871  0.45426394    -0.01710
C2178       C  0.92144220  0.20187094  0.42993453     0.03270
C2179       C  0.02582102  0.31955289  0.41263563     0.37920
C2180       C  0.88402385  0.18212632  0.46827298     0.37910
C2181       C  0.90262927  0.15383903  0.42038191     0.36330
C2182       C  0.05100423  0.31119285  0.46056945     0.36330
N2183       N  0.89456555  0.11775789  0.41166792    -0.38490
N2184       N  0.59118353  0.33038244  0.46713604    -0.38490
N2185       N  0.85321589  0.16529493  0.48101188    -0.37930
N2186       N  0.05279524  0.34991940  0.40119875    -0.37940
C2187       C  0.75373294  0.06224206  0.42140647    -0.04600
C2188       C  0.79243969  0.06025067  0.43160061    -0.01720
C2189       C  0.79312729  0.05452587  0.45540143     0.03270
C2190       C  0.74844664  0.02469034  0.46600994    -0.04600
C2191       C  0.70609486  0.00712582  0.45065478    -0.01710
C2192       C  0.70797691  0.03200863  0.43009835     0.03270
C2193       C  0.80872541  0.03394078  0.41785989     0.37920
C2194       C  0.67059268  0.95663968  0.45013713     0.37910
C2195       C  0.66393895  0.02181166  0.41688519     0.36330
C2196       C  0.84058028  0.07472779  0.46677885     0.36330
N2197       N  0.62866899  0.01353174  0.40629908    -0.38490
N2198       N  0.87917032  0.09076114  0.47546183    -0.38490
N2199       N  0.64461934  0.91543485  0.44773025    -0.37930
N2200       N  0.81977942  0.01137652  0.40667117    -0.37940
C2201       C  0.71239721  0.20240115  0.42070615    -0.04600
C2202       C  0.68476070  0.22418668  0.42555967    -0.01720
C2203       C  0.68751602  0.24424778  0.44849768     0.03270
C2204       C  0.71819963  0.24282271  0.46711185    -0.04600
C2205       C  0.74188299  0.21752532  0.46275496    -0.01710
C2206       C  0.73811106  0.19666745  0.44035606     0.03270
C2207       C  0.65783635  0.23092748  0.40637847     0.37920
C2208       C  0.77514016  0.21807636  0.48120822     0.37910
C2209       C  0.76516359  0.17271055  0.43847401     0.36330
C2210       C  0.66815640  0.27584695  0.45098938     0.36330
N2211       N  0.79038994  0.15719261  0.44135153    -0.38490
N2212       N  0.65497717  0.30327875  0.45177767    -0.38490
N2213       N  0.80221505  0.22051494  0.49606582    -0.37930
N2214       N  0.63637515  0.23639693  0.39106078    -0.37940
Zr2215     Zr  0.82602939  0.70622129  0.37709687     2.17510
O2216       O  0.86241912  0.75844359  0.41212094    -0.50590
O2217       O  0.79970784  0.63369386  0.40062065    -0.73800
O2218       O  0.77416980  0.72849130  0.39482262    -0.80580
O2219       O  0.94180763  0.71001337  0.37579489    -0.82330
O2220       O  0.70082077  0.67656008  0.37781375    -0.77950
O2221       O  0.91214526  0.75617945  0.38561948    -0.89590
O2222       O  0.73716819  0.56798967  0.38188640    -0.75550
O2223       O  0.75115575  0.63974359  0.36194100    -0.85040
O2224       O  0.84496810  0.64846700  0.36245509    -0.84730
O2225       O  0.79528364  0.74147325  0.34924431    -0.71490
O2226       O  0.88408589  0.75041982  0.34911460    -0.83620
Zr2227     Zr  0.79943191  0.65947138  0.29078524     2.26420
Zr2228     Zr  0.71919517  0.67332441  0.33475679     2.06270
Zr2229     Zr  0.90520414  0.69330952  0.33543972     2.10050
Zr2230     Zr  0.77017007  0.58376126  0.34495333     1.78760
O2231       O  0.98579860  0.76363115  0.33240626    -0.92430
O2232       O  0.68642878  0.51694801  0.33946423    -0.40240
O2233       O  0.83119348  0.62657531  0.31838200    -0.76870
O2234       O  0.73820318  0.61639813  0.31776500    -0.95560
O2235       O  0.77640746  0.71425595  0.30514255    -0.88860
O2236       O  0.87412283  0.72538616  0.30632807    -0.91700
C2237       C  0.76295173  0.59000281  0.40019974     1.02050
C2238       C  0.93715526  0.73687994  0.39087236     1.14980
C2239       C  0.72885744  0.70159494  0.39614029     1.05760
O2240       O  0.63377736  0.61314819  0.33739041    -0.93860
O2241       O  0.67800867  0.64720545  0.29434751    -0.89600
O2242       O  0.71940715  0.62111988  0.27309148    -0.82750
C2243       C  0.68405556  0.62798017  0.27566960     1.12400
O2244       O  0.87731652  0.85026160  0.34627310    -0.95830
Zr2245     Zr  0.85200217  0.78110011  0.31938108     1.88940
O2246       O  0.82047078  0.71759813  0.25979374    -0.72480
O2247       O  0.69661119  0.73512787  0.33207654    -0.51740
O2248       O  0.80486009  0.81764573  0.30614368    -0.96420
O2249       O  0.93583586  0.84618269  0.31687910    -0.53640
O2250       O  0.86641562  0.79201740  0.27712649    -0.73000
C2251       C  0.84996436  0.76352366  0.25870017     0.99350
O2252       O  0.78091186  0.58425715  0.27051060    -0.61820
O2253       O  0.93652197  0.63853744  0.34004005    -0.56620
O2254       O  0.86378966  0.65938068  0.27208273    -0.93300
O2255       O  0.92707734  0.67584278  0.29803430    -0.91730
O2256       O  0.80738645  0.54099514  0.36253936    -0.92080
O2257       O  0.76097350  0.51964916  0.31823349    -0.90870
C2258       C  0.90549035  0.66510574  0.27752122     1.18190
H2259       H  0.85796723  0.63634309  0.37431878     0.34130
H2260       H  0.70914645  0.58896262  0.31066126     0.44990
H2261       H  0.89745403  0.74013667  0.29460572     0.38510
H2262       H  0.78982570  0.76526063  0.35668353     0.34990
H2263       H  0.68419107  0.49243040  0.35051172     0.26780
H2264       H  0.66077393  0.71664203  0.32966930     0.32720
H2265       H  0.82825394  0.84750178  0.29856475     0.38630
H2266       H  0.78033782  0.50706798  0.36293801     0.33090
H2267       H  0.97011422  0.65910349  0.34690020     0.31960
H2268       H  0.00759405  0.75018203  0.33221112     0.33650
H2269       H  0.93440534  0.86747925  0.30485585     0.32610
H2270       H  0.73426468  0.51342127  0.30667120     0.36610
H2271       H  0.80050573  0.57258499  0.27896605     0.29340
H2272       H  0.83592515  0.74999711  0.42241234     0.33580
H2273       H  0.88012730  0.87674270  0.33648599     0.36430
H2274       H  0.91849019  0.61748543  0.35280311     0.29040
H2275       H  0.74708862  0.56030170  0.27383080     0.41910
H2276       H  0.63382001  0.58955587  0.34840004     0.31960
H2277       H  0.66673588  0.52947615  0.34602929     0.39580
H2278       H  0.95208529  0.83067274  0.30948055     0.31430
H2279       H  0.70298686  0.74954467  0.34811964     0.31500
H2280       H  0.87121463  0.79134025  0.40721609     0.31760
C2281       C  0.72090836  0.86155470  0.17220241     0.03020
C2282       C  0.72415711  0.90894592  0.17670391     0.03020
C2283       C  0.67756986  0.90917021  0.17518321     0.03020
C2284       C  0.63038022  0.86399333  0.17213086     0.03020
C2285       C  0.62899839  0.81822547  0.17218077     0.03020
C2286       C  0.67352520  0.81688401  0.17194702     0.03020
C2287       C  0.67093069  0.59600677  0.17853807     0.01300
C2288       C  0.67457768  0.62868480  0.16070364     0.01300
C2289       C  0.92561292  0.84007230  0.16607092     0.01300
C2290       C  0.89549338  0.84532592  0.14827756     0.01300
C2291       C  0.90964133  0.60399789  0.18481642     0.01300
C2292       C  0.94178459  0.62595767  0.16691079     0.01300
C2293       C  0.97865537  0.74127861  0.49066126     0.01300
C2294       C  0.98181189  0.77632878  0.50790864     0.01300
C2295       C  0.74779171  0.50628992  0.49068019     0.01300
C2296       C  0.71036303  0.99720450  0.50560702     0.01300
C2297       C  0.52412106  0.50124946  0.49003294     0.03020
C2298       C  0.97638199  0.95635354  0.49205832     0.03020
C2299       C  0.93147539  0.95734787  0.49435532     0.03020
C2300       C  0.93298641  0.50334287  0.49599057     0.03020
C2301       C  0.97891584  0.54876950  0.49490286     0.03020
C2302       C  0.52458273  0.54797103  0.49265836     0.03020
C2303       C  0.73068929  0.77027145  0.49098526     0.01300
C2304       C  0.70067424  0.74303748  0.50939628     0.01300
Zr2305     Zr  0.97697532  0.52903536  0.96168534     2.17510
O2306       O  0.93260980  0.56793992  0.94920626    -0.50590
O2307       O  0.50717338  0.50668367  0.92974075    -0.73800
O2308       O  0.52854477  0.59949402  0.94332079    -0.80580
O2309       O  0.85465215  0.93048581  0.95588890    -0.82330
O2310       O  0.58420676  0.65109722  0.97130882    -0.77950
O2311       O  0.91682194  0.47823441  0.93385040    -0.89590
O2312       O  0.53494880  0.45885469  0.94261440    -0.75550
O2313       O  0.55379597  0.54359856  0.97532330    -0.85040
O2314       O  0.95835232  0.94983645  0.96987772    -0.84730
O2315       O  0.49999165  0.58941146  0.99162191    -0.71490
O2316       O  0.91037125  0.50203083  0.98541162    -0.83620
Zr2317     Zr  0.49610689  0.49422296  0.04309651     2.26420
Zr2318     Zr  0.57609026  0.60173780  0.00675625     2.06270
Zr2319     Zr  0.89364660  0.92354517  0.99521136     2.10050
Zr2320     Zr  0.53508057  0.46428430  0.98518090     1.78760
O2321       O  0.80714637  0.88735816  0.00011846    -0.92430
O2322       O  0.61938137  0.49758576  0.97593919    -0.40240
O2323       O  0.97079679  0.93585940  0.01130562    -0.76870
O2324       O  0.56036643  0.52275964  0.01709355    -0.95560
O2325       O  0.51199932  0.57234053  0.03326939    -0.88860
O2326       O  0.91912303  0.48115934  0.02800498    -0.91700
C2327       C  0.52399283  0.47894630  0.92602550     1.02050
C2328       C  0.87186191  0.95180081  0.93630102     1.14980
C2329       C  0.56213018  0.64118505  0.95057529     1.05760
O2330       O  0.65738068  0.62290636  0.99685298    -0.93860
O2331       O  0.61693517  0.61435774  0.04643783    -0.89600
O2332       O  0.57200457  0.54437275  0.06515684    -0.82750
C2333       C  0.60844058  0.58725453  0.06424029     1.12400
O2334       O  0.90210679  0.59906975  0.99293550    -0.95830
Zr2335     Zr  0.93566108  0.55970016  0.01729209     1.88940
O2336       O  0.95611225  0.51873780  0.07086123    -0.72480
O2337       O  0.60682818  0.68452142  0.02113560    -0.51740
O2338       O  0.47386688  0.64519639  0.02899925    -0.96420
O2339       O  0.84853729  0.52416646  0.02054122    -0.53640
O2340       O  0.92507097  0.56387181  0.05767341    -0.73000
C2341       C  0.93601947  0.54425253  0.07407745     0.99350
O2342       O  0.53168910  0.96803679  0.07422691    -0.61820
O2343       O  0.87320165  0.84391225  0.97996425    -0.56620
O2344       O  0.95291288  0.90739925  0.04504765    -0.93300
O2345       O  0.87634272  0.88288688  0.03376856    -0.91730
O2346       O  0.50608699  0.87911266  0.97657177    -0.92080
O2347       O  0.57016720  0.93089464  0.01257799    -0.90870
C2348       C  0.90824575  0.88414885  0.04896720     1.18190
H2349       H  0.94751261  0.92874333  0.95604244     0.34130
H2350       H  0.58921830  0.52569770  0.02488650     0.44990
H2351       H  0.89489433  0.46838623  0.03941495     0.38510
H2352       H  0.50421658  0.61949979  0.98604149     0.34990
H2353       H  0.61941138  0.47142283  0.96666895     0.26780
H2354       H  0.63583622  0.70443738  0.01227473     0.32720
H2355       H  0.95048314  0.64761934  0.03874566     0.38630
H2356       H  0.53498445  0.87841087  0.97177809     0.33090
H2357       H  0.86747979  0.84490238  0.96290187     0.31960
H2358       H  0.79161864  0.85767873  0.98985943     0.33650
H2359       H  0.84519230  0.54863704  0.02955907     0.32610
H2360       H  0.60249423  0.95838496  0.01790830     0.36610
H2361       H  0.50522801  0.94056272  0.08181122     0.29340
H2362       H  0.89910884  0.54742120  0.95407657     0.33580
H2363       H  0.89137735  0.61541961  0.00378691     0.36430
H2364       H  0.90401143  0.84373919  0.98173279     0.29040
H2365       H  0.54797805  0.45348118  0.06599741     0.41910
H2366       H  0.65604930  0.62258462  0.97956190     0.31960
H2367       H  0.62548846  0.52285956  0.96458000     0.39580
H2368       H  0.83907875  0.49717826  0.03124725     0.31430
H2369       H  0.58251331  0.69266405  0.01496365     0.31500
H2370       H  0.94579524  0.59775487  0.95902959     0.31760
Zr2371     Zr  0.63327097  0.84866563  0.70523938     2.17510
O2372       O  0.67605851  0.93317652  0.71827958    -0.50590
O2373       O  0.60796225  0.79290551  0.73725659    -0.73800
O2374       O  0.58889159  0.88113227  0.71837004    -0.80580
O2375       O  0.75812157  0.88809941  0.70535445    -0.82330
O2376       O  0.51149333  0.83342510  0.70606338    -0.77950
O2377       O  0.69850847  0.86373799  0.73049736    -0.89590
O2378       O  0.58864102  0.71874727  0.72347683    -0.75550
O2379       O  0.55902485  0.77832140  0.69444427    -0.85040
O2380       O  0.66131881  0.79709914  0.69366618    -0.84730
O2381       O  0.59610843  0.87779323  0.67784708    -0.71490
O2382       O  0.69197593  0.89445667  0.67853533    -0.83620
Zr2383     Zr  0.60567882  0.79547766  0.62299744     2.26420
Zr2384     Zr  0.52271958  0.80643875  0.66569280     2.06270
Zr2385     Zr  0.71810472  0.84176211  0.66557554     2.10050
Zr2386     Zr  0.58747048  0.72678483  0.68107291     1.78760
O2387       O  0.79959556  0.90491661  0.65724745    -0.92430
O2388       O  0.50505479  0.66343034  0.68811077    -0.40240
O2389       O  0.64400865  0.76936122  0.65159362    -0.76870
O2390       O  0.54869923  0.75154522  0.65254233    -0.95560
O2391       O  0.57966851  0.84885126  0.63602017    -0.88860
O2392       O  0.67866494  0.86619515  0.63675538    -0.91700
C2393       C  0.59562664  0.74850033  0.74037765     1.02050
C2394       C  0.74266247  0.88822925  0.72620033     1.14980
C2395       C  0.54496709  0.86360921  0.72140187     1.05760
O2396       O  0.94606928  0.73147699  0.66938336    -0.93860
O2397       O  0.49279298  0.79634451  0.62381744    -0.89600
O2398       O  0.52089618  0.74938760  0.61347232    -0.82750
C2399       C  0.49882013  0.77121913  0.60810147     1.12400
O2400       O  0.68189896  0.99278069  0.67437226    -0.95830
Zr2401     Zr  0.65308925  0.91936083  0.65001647     1.88940
O2402       O  0.62112140  0.85380429  0.59202653    -0.72480
O2403       O  0.47410579  0.84504305  0.66152762    -0.51740
O2404       O  0.60383252  0.95643310  0.64235097    -0.96420
O2405       O  0.73584285  0.98302000  0.64352353    -0.53640
O2406       O  0.65101436  0.92827650  0.60939662    -0.73000
C2407       C  0.63981807  0.90016980  0.59156980     0.99350
O2408       O  0.58804129  0.72753592  0.59642371    -0.61820
O2409       O  0.75236230  0.79212403  0.67749310    -0.56620
O2410       O  0.66713236  0.79823612  0.60076280    -0.93300
O2411       O  0.73444068  0.82173498  0.62519353    -0.91730
O2412       O  0.62934984  0.68302394  0.69062029    -0.92080
O2413       O  0.56387905  0.65923843  0.65339105    -0.90870
C2414       C  0.71049200  0.80747246  0.60480763     1.18190
H2415       H  0.67673532  0.78952874  0.70650413     0.34130
H2416       H  0.52011753  0.72076243  0.64803989     0.44990
H2417       H  0.69964027  0.88089441  0.62419208     0.38510
H2418       H  0.58834628  0.90213961  0.68219837     0.34990
H2419       H  0.50914554  0.63974943  0.69742618     0.26780
H2420       H  0.44710274  0.82737314  0.67185746     0.32720
H2421       H  0.62452275  0.98573898  0.63367150     0.38630
H2422       H  0.60401846  0.65186987  0.69649450     0.33090
H2423       H  0.76003228  0.79904534  0.69452379     0.31960
H2424       H  0.82067305  0.89218727  0.66267312     0.33650
H2425       H  0.73483801  0.99331936  0.62738807     0.32610
H2426       H  0.53697224  0.65711536  0.64317420     0.36610
H2427       H  0.60329841  0.71093322  0.60447056     0.29340
H2428       H  0.66047952  0.94987496  0.71073441     0.33580
H2429       H  0.69076600  0.01953050  0.66356279     0.36430
H2430       H  0.72450150  0.75850171  0.67612084     0.29040
H2431       H  0.55301091  0.70360881  0.59652048     0.41910
H2432       H  0.94277137  0.72829246  0.68644530     0.31960
H2433       H  0.49352919  0.67862562  0.69921001     0.39580
H2434       H  0.75464946  0.96633640  0.64297921     0.31430
H2435       H  0.49446580  0.87753555  0.66924557     0.31500
H2436       H  0.70783797  0.94806168  0.71124057     0.31760
C2437       C  0.81079954  0.92109236  0.83987303     0.01300
C2438       C  0.81000642  0.95272871  0.82270349     0.01300
C2439       C  0.77420264  0.69155453  0.83779456     0.03020
C2440       C  0.81837829  0.73655201  0.83217802     0.03020
C2441       C  0.86462759  0.73859713  0.82767535     0.03020
C2442       C  0.86632251  0.69351552  0.82999452     0.03020
C2443       C  0.81984676  0.64764207  0.83110450     0.03020
C2444       C  0.77398749  0.64653316  0.83417287     0.03020
C2445       C  0.58776150  0.68877011  0.85699158     0.01300
C2446       C  0.55854142  0.69234434  0.83828393     0.01300
C2447       C  0.57315616  0.96692945  0.83022532     0.01300
C2448       C  0.54105691  0.93430409  0.81237937     0.01300
C2449       C  0.91604655  0.69339543  0.83261010    -0.04600
C2450       C  0.92913348  0.66776027  0.81678007    -0.01720
C2451       C  0.97042095  0.66204793  0.82140690     0.03270
C2452       C  0.00771216  0.68998388  0.83912717    -0.04600
C2453       C  0.99717359  0.71928070  0.85395003    -0.01710
C2454       C  0.95093774  0.71731350  0.85189813     0.03270
C2455       C  0.90577487  0.65277838  0.79363137     0.37920
C2456       C  0.03259739  0.75044844  0.87224852     0.37910
C2457       C  0.93882658  0.73747610  0.87113663     0.36330
C2458       C  0.97415172  0.62624591  0.80743805     0.36330
N2459       N  0.93149997  0.75231553  0.88787982    -0.38490
N2460       N  0.97651967  0.59732621  0.79632165    -0.38490
N2461       N  0.56018901  0.77563606  0.88703353    -0.37930
N2462       N  0.89164599  0.64234057  0.77426469    -0.37940
C2463       C  0.72664068  0.69058925  0.84585682    -0.04600
C2464       C  0.69211073  0.65556429  0.86047540    -0.01720
C2465       C  0.64592121  0.65275150  0.86320171     0.03270
C2466       C  0.63560207  0.68794606  0.85306574    -0.04600
C2467       C  0.67699075  0.72817374  0.84433128    -0.01710
C2468       C  0.72295696  0.73227791  0.84804282     0.03270
C2469       C  0.71303881  0.64588987  0.88114073     0.37920
C2470       C  0.67736628  0.77201483  0.83974916     0.37910
C2471       C  0.74880147  0.76031935  0.86933376     0.36330
C2472       C  0.61655087  0.62237881  0.88116226     0.36330
N2473       N  0.76853061  0.77996626  0.88698512    -0.38490
N2474       N  0.59774378  0.60131175  0.89734001    -0.38490
N2475       N  0.68060006  0.80892195  0.83662096    -0.37930
N2476       N  0.72911773  0.64208453  0.89897042    -0.37940
C2477       C  0.72413331  0.59811133  0.83186317    -0.04600
C2478       C  0.68969357  0.58883682  0.81293017    -0.01720
C2479       C  0.64076936  0.54815549  0.81210699     0.03270
C2480       C  0.62589884  0.51115988  0.82876504    -0.04600
C2481       C  0.66299891  0.51782704  0.84589193    -0.01710
C2482       C  0.70884299  0.56170158  0.84862172     0.03270
C2483       C  0.70512534  0.61951790  0.79311764     0.37920
C2484       C  0.65670521  0.47832282  0.86020982     0.37910
C2485       C  0.73689489  0.56978619  0.87042234     0.36330
C2486       C  0.60826224  0.54355441  0.79250335     0.36330
N2487       N  0.75504622  0.57360275  0.88889860    -0.38490
N2488       N  0.58519434  0.54353510  0.77632214    -0.38490
N2489       N  0.65501744  0.94845413  0.87197744    -0.37930
N2490       N  0.71616696  0.64154787  0.77641079    -0.37940
C2491       C  0.99721447  0.88422448  0.81804668    -0.04600
C2492       C  0.99692339  0.84085777  0.81268156    -0.01720
C2493       C  0.95360847  0.79382000  0.81259679     0.03270
C2494       C  0.91117150  0.78885210  0.82185492    -0.04600
C2495       C  0.91015235  0.83214495  0.81828833    -0.01710
C2496       C  0.95238401  0.87734600  0.82375568     0.03270
C2497       C  0.04255142  0.84686748  0.80782484     0.37920
C2498       C  0.88693315  0.83241988  0.79602941     0.37910
C2499       C  0.94805570  0.91643244  0.83271157     0.36330
C2500       C  0.94326319  0.76410029  0.79185189     0.36330
N2501       N  0.94376199  0.94751445  0.84011786    -0.38490
N2502       N  0.93178866  0.74329724  0.77395169    -0.38490
N2503       N  0.87011492  0.83281579  0.77775777    -0.37930
N2504       N  0.58267191  0.85995372  0.80514539    -0.37940
C2505       C  0.81895306  0.59935583  0.82941495    -0.04600
C2506       C  0.80962397  0.57313560  0.80817175    -0.01720
C2507       C  0.82005506  0.53487436  0.80684555     0.03270
C2508       C  0.81482153  0.50514263  0.82663071    -0.04600
C2509       C  0.81316057  0.52833545  0.84811173    -0.01710
C2510       C  0.82778253  0.57859248  0.84907456     0.03270
C2511       C  0.79421351  0.58828921  0.78741506     0.37920
C2512       C  0.78444442  0.50257124  0.86714043     0.37910
C2513       C  0.84709575  0.60760252  0.87059535     0.36330
C2514       C  0.84382351  0.53322211  0.78633931     0.36330
N2515       N  0.86234508  0.63230109  0.88736990    -0.38490
N2516       N  0.86356956  0.53347573  0.76993770    -0.38490
N2517       N  0.76214045  0.98661051  0.88332861    -0.37930
N2518       N  0.78261227  0.60105624  0.77080551    -0.37940
C2519       C  0.81335308  0.87333381  0.83599069    -0.04600
C2520       C  0.84186650  0.86192020  0.85252961    -0.01720
C2521       C  0.84164608  0.81759079  0.85133075     0.03270
C2522       C  0.81720061  0.78356868  0.83280205    -0.04600
C2523       C  0.79130437  0.79443786  0.81558301    -0.01710
C2524       C  0.78631996  0.83617126  0.81789467     0.03270
C2525       C  0.87388931  0.89412883  0.87158275     0.37920
C2526       C  0.76895501  0.76222318  0.79513389     0.37910
C2527       C  0.74825225  0.83467863  0.80259166     0.36330
C2528       C  0.86406163  0.80529839  0.87067090     0.36330
N2529       N  0.71623696  0.82853680  0.78983853    -0.38490
N2530       N  0.88027818  0.79737633  0.88730544    -0.38490
N2531       N  0.75159725  0.73928607  0.77799215    -0.37930
N2532       N  0.90158307  0.91640400  0.88694329    -0.37940
C2533       C  0.77283771  0.91752265  0.74781561    -0.04600
C2534       C  0.75049615  0.93479283  0.76300585    -0.01720
C2535       C  0.75500806  0.93183162  0.78722375     0.03270
C2536       C  0.79678774  0.93460767  0.79731629    -0.04600
C2537       C  0.82612520  0.92693901  0.78208250    -0.01710
C2538       C  0.81112945  0.91305252  0.75798677     0.03270
C2539       C  0.73946223  0.97094201  0.75545890     0.37920
C2540       C  0.87206015  0.93556201  0.79057059     0.37910
C2541       C  0.83470274  0.89467913  0.74381304     0.36330
C2542       C  0.71768121  0.92629182  0.80227327     0.36330
N2543       N  0.85269410  0.87941759  0.73218594    -0.38490
N2544       N  0.68940840  0.91965796  0.81572321    -0.38490
N2545       N  0.91032249  0.94421757  0.79658424    -0.37930
N2546       N  0.73264303  0.00193962  0.75040725    -0.37940
C2547       C  0.58838526  0.73172963  0.76525669    -0.04600
C2548       C  0.57388502  0.75460257  0.78124183    -0.01720
C2549       C  0.57575085  0.74736960  0.80528954     0.03270
C2550       C  0.57757835  0.70768015  0.81374693    -0.04600
C2551       C  0.59039882  0.68271629  0.79773057    -0.01710
C2552       C  0.59793991  0.69600088  0.77390843     0.03270
C2553       C  0.54732386  0.77635913  0.77203443     0.37920
C2554       C  0.60210238  0.64814101  0.80604520     0.37910
C2555       C  0.61538694  0.67285236  0.75856323     0.36330
C2556       C  0.58487852  0.78405656  0.82251238     0.36330
N2557       N  0.62937472  0.65423372  0.74642259    -0.38490
N2558       N  0.59635985  0.81162128  0.83805684    -0.38490
N2559       N  0.61585433  0.62374676  0.81332782    -0.37930
N2560       N  0.52566576  0.79142220  0.76232714    -0.37940
C2561       C  0.54027195  0.88391332  0.74434083    -0.04600
C2562       C  0.50589102  0.89759341  0.74833118    -0.01720
C2563       C  0.51100348  0.92497547  0.76920765     0.03270
C2564       C  0.55003910  0.93802365  0.78635034    -0.04600
C2565       C  0.58944276  0.93565920  0.77868037    -0.01710
C2566       C  0.58177484  0.90290182  0.76066609     0.03270
C2567       C  0.46853170  0.88762940  0.73023868     0.37920
C2568       C  0.63865532  0.96622751  0.78829336     0.37910
C2569       C  0.61653781  0.88653904  0.76080943     0.36330
C2570       C  0.48959989  0.95502788  0.76838531     0.36330
N2571       N  0.64405791  0.87352878  0.76271008    -0.38490
N2572       N  0.47652891  0.98234868  0.76549475    -0.38490
N2573       N  0.67927034  0.99150890  0.79398713    -0.37930
N2574       N  0.43920590  0.87983633  0.71549127    -0.37940
C2575       C  0.81684986  0.93583428  0.86527744    -0.04600
C2576       C  0.85996463  0.97655071  0.87396645    -0.01720
C2577       C  0.86726063  0.98682223  0.89800886     0.03270
C2578       C  0.84290746  0.94953525  0.91403722    -0.04600
C2579       C  0.79774482  0.91021859  0.90584697    -0.01710
C2580       C  0.78272213  0.90667280  0.88159462     0.03270
C2581       C  0.89659811  0.50674465  0.85820174     0.37920
C2582       C  0.76632198  0.87693751  0.92243921     0.37910
C2583       C  0.73215151  0.88718865  0.87476958     0.36330
C2584       C  0.88475166  0.53605552  0.90518867     0.36330
N2585       N  0.69201128  0.87561883  0.87021465    -0.38490
N2586       N  0.89501970  0.57535493  0.90977026    -0.38490
N2587       N  0.74181348  0.85086766  0.93613645    -0.37930
N2588       N  0.92443689  0.52885771  0.84464724    -0.37940
C2589       C  0.57903489  0.68969954  0.88319821    -0.04600
C2590       C  0.53345632  0.66536878  0.89332032    -0.01720
C2591       C  0.53197536  0.66926338  0.91771974     0.03270
C2592       C  0.57220833  0.67726855  0.93245961    -0.04600
C2593       C  0.61749690  0.70270644  0.92333559    -0.01710
C2594       C  0.61990615  0.71484456  0.89966994     0.03270
C2595       C  0.48809131  0.63646850  0.88005493     0.37920
C2596       C  0.66112084  0.71684023  0.93799454     0.37910
C2597       C  0.66096235  0.75900756  0.89402220     0.36330
C2598       C  0.99102816  0.66831524  0.92772321     0.36330
N2599       N  0.69367714  0.79653322  0.89120427    -0.38490
N2600       N  0.95936586  0.67037270  0.93539675    -0.38490
N2601       N  0.69604925  0.72805334  0.94963704    -0.37930
N2602       N  0.95064589  0.61400544  0.87003793    -0.37940
C2603       C  0.53110418  0.47074050  0.90093693    -0.04600
C2604       C  0.52565856  0.49830127  0.88299428    -0.01720
C2605       C  0.54198320  0.99861593  0.86066726     0.03270
C2606       C  0.55427525  0.96407554  0.85409578    -0.04600
C2607       C  0.54941759  0.92934591  0.87052268    -0.01710
C2608       C  0.54186238  0.93489804  0.89414462     0.03270
C2609       C  0.00154301  0.52525337  0.88691774     0.37920
C2610       C  0.55113620  0.88705371  0.86374190     0.37910
C2611       C  0.54385697  0.90224216  0.91095183     0.36330
C2612       C  0.03844044  0.52955746  0.84333023     0.36330
N2613       N  0.54593203  0.87599064  0.92404040    -0.38490
N2614       N  0.03142223  0.55196705  0.82969078    -0.38490
N2615       N  0.55108461  0.85168120  0.86001629    -0.37930
N2616       N  0.98304408  0.54697322  0.89125636    -0.37940
C2617       C  0.72886778  0.79560440  0.58365578    -0.04600
C2618       C  0.73964108  0.82666304  0.56476645    -0.01720
C2619       C  0.72287475  0.80815878  0.54134015     0.03270
C2620       C  0.70536453  0.75967837  0.53549353    -0.04600
C2621       C  0.68883254  0.72818161  0.55481851    -0.01710
C2622       C  0.70706974  0.74594376  0.57799910     0.03270
C2623       C  0.78027031  0.87454370  0.56903031     0.37920
C2624       C  0.64067290  0.68596932  0.55368082     0.37910
C2625       C  0.69499680  0.71231746  0.59680888     0.36330
C2626       C  0.70814699  0.83186253  0.52444540     0.36330
N2627       N  0.68517264  0.68553468  0.61177799    -0.38490
N2628       N  0.69281391  0.84558477  0.50962238    -0.38490
N2629       N  0.60165000  0.65334419  0.55435247    -0.37930
N2630       N  0.81452108  0.91197980  0.57329473    -0.37940
C2631       C  0.57308665  0.59714242  0.49547618    -0.04600
C2632       C  0.58145177  0.63802927  0.48252382    -0.01720
C2633       C  0.61650100  0.68469262  0.49104762     0.03270
C2634       C  0.65837000  0.69193043  0.50342955    -0.04600
C2635       C  0.65741324  0.65038663  0.51201165    -0.01710
C2636       C  0.61190488  0.60567046  0.51192631     0.03270
C2637       C  0.57327184  0.63376205  0.45748949     0.37920
C2638       C  0.70132835  0.65763195  0.52406599     0.37910
C2639       C  0.60426294  0.57032288  0.52918872     0.36330
C2640       C  0.60605072  0.72326015  0.49029788     0.36330
N2641       N  0.59642683  0.54160805  0.54299960    -0.38490
N2642       N  0.59810126  0.75456705  0.49110234    -0.38490
N2643       N  0.73880606  0.66909136  0.53323223    -0.37930
N2644       N  0.56993167  0.63276089  0.43726651    -0.37940
C2645       C  0.88100275  0.90873624  0.49406341    -0.04600
C2646       C  0.85890627  0.88408401  0.51445090    -0.01720
C2647       C  0.81528978  0.83705339  0.51319211     0.03270
C2648       C  0.78245361  0.81947735  0.49277193    -0.04600
C2649       C  0.80420899  0.84702868  0.47243918    -0.01710
C2650       C  0.85374308  0.88589530  0.47293845     0.03270
C2651       C  0.88061764  0.90626407  0.53710463     0.37920
C2652       C  0.77838516  0.83777931  0.44981251     0.37910
C2653       C  0.87538089  0.90203390  0.45082800     0.36330
C2654       C  0.81045356  0.80469465  0.53158071     0.36330
N2655       N  0.88833781  0.91230135  0.43216639    -0.38490
N2656       N  0.80769142  0.77933696  0.54641177    -0.38490
N2657       N  0.76292450  0.83480535  0.43078114    -0.37930
N2658       N  0.89707382  0.92337458  0.55553018    -0.37940
C2659       C  0.65886889  0.92567271  0.56986870    -0.04600
C2660       C  0.70037549  0.92702836  0.56246516    -0.01720
C2661       C  0.71825673  0.94674668  0.54085922     0.03270
C2662       C  0.70649426  0.98063358  0.53100382    -0.04600
C2663       C  0.68184784  0.99520569  0.54595690    -0.01710
C2664       C  0.65426545  0.96555967  0.56377455     0.03270
C2665       C  0.73524662  0.93288506  0.58118974     0.37920
C2666       C  0.69568743  0.04512553  0.54762778     0.37910
C2667       C  0.62556934  0.97942505  0.57712466     0.36330
C2668       C  0.75363974  0.93656157  0.53260571     0.36330
N2669       N  0.60323806  0.99146277  0.58755234    -0.38490
N2670       N  0.78248687  0.92723616  0.52735899    -0.38490
N2671       N  0.70783614  0.08488641  0.55203502    -0.37930
N2672       N  0.76211559  0.94124862  0.59721270    -0.37940
C2673       C  0.79131271  0.99898715  0.49612782    -0.04600
C2674       C  0.80216244  0.97368135  0.47919010    -0.01720
C2675       C  0.85052385  0.98459547  0.47740212     0.03270
C2676       C  0.88450934  0.50300280  0.49680208    -0.04600
C2677       C  0.86969381  0.51850027  0.51654061    -0.01710
C2678       C  0.82790876  0.52419935  0.51453878     0.03270
C2679       C  0.76565579  0.94094140  0.46168463     0.37920
C2680       C  0.89059105  0.51992974  0.53960196     0.37910
C2681       C  0.81944997  0.54959247  0.53295669     0.36330
C2682       C  0.86710701  0.98763026  0.45433383     0.36330
N2683       N  0.81217942  0.56896121  0.54796215    -0.38490
N2684       N  0.87899567  0.99131193  0.43542917    -0.38490
N2685       N  0.90448968  0.51929234  0.55853718    -0.37930
N2686       N  0.73761561  0.91433401  0.44745683    -0.37940
C2687       C  0.66407775  0.99890136  0.49700002    -0.04600
C2688       C  0.66420157  0.54068444  0.48933143    -0.01720
C2689       C  0.61986539  0.53913528  0.48174586     0.03270
C2690       C  0.57328862  0.49921595  0.48701764    -0.04600
C2691       C  0.57571026  0.95590351  0.48660531    -0.01710
C2692       C  0.61811101  0.95626054  0.49603494     0.03270
C2693       C  0.71029142  0.58437519  0.48825383     0.37920
C2694       C  0.56317874  0.93211403  0.46383340     0.37910
C2695       C  0.61659846  0.91147965  0.50121312     0.36330
C2696       C  0.62313759  0.56801499  0.46206182     0.36330
N2697       N  0.61802012  0.87815725  0.50772625    -0.38490
N2698       N  0.62901268  0.58996519  0.44542778    -0.38490
N2699       N  0.05710956  0.91536300  0.44514717    -0.37930
N2700       N  0.74871884  0.61775756  0.48780376    -0.37940
C2701       C  0.49118345  0.77376541  0.58247980    -0.04600
C2702       C  0.51064884  0.81928934  0.57264111    -0.01720
C2703       C  0.52055109  0.82419913  0.54865902     0.03270
C2704       C  0.00436308  0.78228486  0.53348670    -0.04600
C2705       C  0.00183615  0.74341969  0.54533496    -0.01710
C2706       C  0.48450808  0.73468679  0.56789865     0.03270
C2707       C  0.51895167  0.86069704  0.58694751     0.37920
C2708       C  0.04069798  0.73410391  0.54191049     0.37910
C2709       C  0.46496433  0.68657334  0.57682518     0.37140
C2710       C  0.54616012  0.87263047  0.54073981     0.36330
N2711       N  0.94862547  0.64828853  0.58419441    -0.38490
N2712       N  0.56422777  0.91308971  0.53672196    -0.38490
N2713       N  0.07262428  0.72751758  0.53987626    -0.37930
N2714       N  0.52438842  0.89298239  0.59853080    -0.37940
C2715       C  0.98151213  0.69265165  0.49302546    -0.04600
C2716       C  0.96222064  0.65976112  0.51143051    -0.01720
C2717       C  0.97205675  0.62078353  0.51416838     0.03270
C2718       C  0.97786640  0.59742047  0.49440974    -0.04600
C2719       C  0.98029886  0.62097139  0.47337812    -0.01710
C2720       C  0.99208457  0.67063225  0.47359881     0.03270
C2721       C  0.92344721  0.65848032  0.52372502     0.37920
C2722       C  0.47059071  0.59490414  0.45117778     0.37910
C2723       C  0.51706110  0.69715015  0.45360473     0.36330
C2724       C  0.98416685  0.61131153  0.53723310     0.36330
N2725       N  0.53793627  0.71585664  0.43735788    -0.38490
N2726       N  0.99590736  0.60521870  0.55569417    -0.38490
N2727       N  0.46459571  0.57649816  0.43290695    -0.37930
N2728       N  0.89247481  0.65915833  0.53292269    -0.37940
C2729       C  0.96364528  0.81368781  0.50231515    -0.04600
C2730       C  0.95267197  0.83756380  0.51992512    -0.01720
C2731       C  0.96498509  0.88665097  0.51735495     0.03270
C2732       C  0.97156059  0.90656136  0.49498154    -0.04600
C2733       C  0.96222721  0.87364107  0.47598667    -0.01710
C2734       C  0.95365112  0.82624865  0.47997671     0.03270
C2735       C  0.92565615  0.81112720  0.53946414     0.37920
C2736       C  0.96002402  0.88614200  0.45197510     0.37910
C2737       C  0.90824404  0.79063955  0.46879798     0.36330
C2738       C  0.97869158  0.91832554  0.53793215     0.36330
N2739       N  0.86994549  0.76375579  0.46079127    -0.38490
N2740       N  0.99256863  0.94434617  0.55426580    -0.38490
N2741       N  0.96106635  0.89427067  0.43231676    -0.37930
N2742       N  0.90397831  0.78966669  0.55501209    -0.37940
C2743       C  0.93411209  0.59823260  0.14349389    -0.04600
C2744       C  0.89199865  0.58001878  0.12765312    -0.01720
C2745       C  0.89166120  0.56243362  0.10473198     0.03270
C2746       C  0.92956367  0.55538288  0.09857836    -0.04600
C2747       C  0.46585780  0.56455068  0.11568261    -0.01710
C2748       C  0.97256793  0.59290263  0.13573822     0.03270
C2749       C  0.84846014  0.57875914  0.13345537     0.37920
C2750       C  0.49495985  0.54295083  0.11233297     0.37910
C2751       C  0.52190731  0.62607027  0.14388357     0.36330
C2752       C  0.85080486  0.54877734  0.08801391     0.36330
N2753       N  0.56146937  0.65625604  0.14873190    -0.38490
N2754       N  0.81785996  0.53789666  0.07494928    -0.38490
N2755       N  0.51486033  0.52309633  0.10700768    -0.37930
N2756       N  0.80994319  0.57186729  0.13572101    -0.37940
C2757       C  0.90306258  0.84924783  0.12213001    -0.04600
C2758       C  0.92876565  0.89527040  0.11346172    -0.01720
C2759       C  0.91559595  0.90424906  0.09096054     0.03270
C2760       C  0.89739337  0.86768351  0.07351759    -0.04600
C2761       C  0.87790903  0.81974853  0.08063154    -0.01710
C2762       C  0.87636618  0.81038788  0.10511415     0.03270
C2763       C  0.97052895  0.93082113  0.12760133     0.37920
C2764       C  0.85959043  0.78083018  0.06306461     0.37910
C2765       C  0.85628006  0.76113489  0.11172225     0.36330
C2766       C  0.89024407  0.93049429  0.08938769     0.36330
N2767       N  0.84185342  0.72083905  0.11513084    -0.38490
N2768       N  0.86516776  0.44666228  0.08769512    -0.38490
N2769       N  0.84515915  0.74972197  0.04901972    -0.37930
N2770       N  0.00319303  0.95582960  0.14039036    -0.37940
C2771       C  0.66167397  0.61093582  0.13570130    -0.04600
C2772       C  0.69332654  0.61239097  0.11900082    -0.01720
C2773       C  0.67812860  0.60552906  0.09466331     0.03270
C2774       C  0.63581828  0.60678998  0.08730165    -0.04600
C2775       C  0.60884136  0.61158348  0.10452193    -0.01710
C2776       C  0.61666668  0.60297308  0.12783022     0.03270
C2777       C  0.74101889  0.62347076  0.12694571     0.37920
C2778       C  0.57901286  0.63223732  0.09828460     0.37910
C2779       C  0.57883107  0.57836322  0.14382745     0.36330
C2780       C  0.70702863  0.60072334  0.07748665     0.36330
N2781       N  0.55066329  0.55624028  0.15724880    -0.38490
N2782       N  0.73025331  0.59704327  0.06370990    -0.38490
N2783       N  0.55667267  0.65007986  0.09263664    -0.37930
N2784       N  0.77953975  0.63431168  0.13417345    -0.37940
C2785       C  0.66962464  0.76722247  0.16844353    -0.04600
C2786       C  0.68075746  0.75407361  0.14715749    -0.01720
C2787       C  0.68733633  0.71324373  0.14537356     0.03270
C2788       C  0.67259168  0.67734562  0.16335682    -0.04600
C2789       C  0.64876863  0.68616267  0.18137668    -0.01710
C2790       C  0.65645441  0.73296097  0.18613990     0.03270
C2791       C  0.68903769  0.78480878  0.12737408     0.37920
C2792       C  0.60747605  0.64664751  0.19140210     0.37910
C2793       C  0.65782773  0.74648558  0.21027790     0.36330
C2794       C  0.71036771  0.71144588  0.12458183     0.36330
N2795       N  0.66138660  0.75646630  0.22999504    -0.38490
N2796       N  0.73004634  0.71421211  0.10777135    -0.38490
N2797       N  0.57388734  0.61434050  0.19883764    -0.37930
N2798       N  0.69594089  0.80914120  0.11154473    -0.37940
C2799       C  0.67676070  0.95689453  0.17537937    -0.04600
C2800       C  0.67815904  0.98145338  0.19619316    -0.01720
C2801       C  0.68771795  0.02987604  0.19552388     0.03270
C2802       C  0.67393639  0.54784092  0.17544855    -0.04600
C2803       C  0.66212592  0.51642650  0.15493906    -0.01710
C2804       C  0.67378052  0.97881075  0.15458137     0.03270
C2805       C  0.67552141  0.96045786  0.21867159     0.37920
C2806       C  0.62817537  0.51123248  0.13612112     0.37910
C2807       C  0.68377053  0.96416349  0.13265748     0.36330
C2808       C  0.71658750  0.56191876  0.21501654     0.36330
N2809       N  0.69331283  0.95451264  0.11499166    -0.38490
N2810       N  0.74031748  0.58868492  0.23016850    -0.38490
N2811       N  0.60063040  0.50301529  0.12041439    -0.37930
N2812       N  0.67547596  0.94660418  0.23724138    -0.37940
C2813       C  0.57979604  0.77027559  0.17119224    -0.04600
C2814       C  0.55106208  0.74976660  0.15007959    -0.01720
C2815       C  0.50337355  0.70848269  0.15018470     0.03270
C2816       C  0.48932883  0.67659722  0.16932545    -0.04600
C2817       C  0.52385690  0.69326396  0.18903218    -0.01710
C2818       C  0.56175054  0.74256305  0.19120748     0.03270
C2819       C  0.57178844  0.76619373  0.12786916     0.37920
C2820       C  0.52066029  0.66260918  0.20801923     0.37910
C2821       C  0.57806512  0.76431476  0.21446693     0.36330
C2822       C  0.96995163  0.69884653  0.13012573     0.36330
N2823       N  0.58849810  0.77824507  0.23375913    -0.38490
N2824       N  0.94358405  0.69200610  0.11407019    -0.38490
N2825       N  0.51998205  0.64077301  0.22411410    -0.37930
N2826       N  0.58738719  0.77648207  0.10967949    -0.37940
C2827       C  0.86316416  0.55338936  0.18111281    -0.04600
C2828       C  0.86517267  0.01038520  0.17947152    -0.01720
C2829       C  0.82250598  0.96385945  0.18267067     0.03270
C2830       C  0.77517774  0.95847702  0.18150500    -0.04600
C2831       C  0.77899622  0.00105708  0.19130742    -0.01710
C2832       C  0.81706139  0.54679491  0.18520402     0.03270
C2833       C  0.91291810  0.01620041  0.17900998     0.37920
C2834       C  0.77816560  0.00067923  0.21650047     0.37910
C2835       C  0.80886845  0.58692631  0.18485882     0.36330
C2836       C  0.82928552  0.93332589  0.19876576     0.36330
N2837       N  0.80080385  0.61802545  0.18287197    -0.38490
N2838       N  0.83419656  0.91083282  0.21310502    -0.38490
N2839       N  0.78066862  0.00166343  0.23672558    -0.37930
N2840       N  0.95270648  0.02494094  0.17906136    -0.37940
C2841       C  0.58086412  0.86334831  0.16976838    -0.04600
C2842       C  0.55527546  0.85855598  0.14798400    -0.01720
C2843       C  0.50508527  0.84691214  0.14615349     0.03270
C2844       C  0.48062779  0.85042499  0.16591750    -0.04600
C2845       C  0.51094074  0.86258223  0.18753453    -0.01710
C2846       C  0.55619091  0.86321011  0.18942880     0.03270
C2847       C  0.58018401  0.86538864  0.12675850     0.37920
C2848       C  0.99965995  0.87773005  0.20898475     0.37910
C2849       C  0.57638453  0.86324408  0.21254652     0.36330
C2850       C  0.48015808  0.82661339  0.12372839     0.36330
N2851       N  0.58842508  0.86278383  0.23183386    -0.38490
N2852       N  0.46567831  0.81030946  0.10498354    -0.38490
N2853       N  0.99591224  0.89104820  0.22716566    -0.37930
N2854       N  0.59810547  0.87075558  0.10916919    -0.37940
C2855       C  0.76529003  0.85683501  0.16544315    -0.04600
C2856       C  0.79680603  0.88529978  0.14825072    -0.01720
C2857       C  0.84252946  0.88798961  0.14656333     0.03270
C2858       C  0.85054658  0.85005718  0.15410994    -0.04600
C2859       C  0.81143169  0.81362771  0.16518319    -0.01710
C2860       C  0.77672311  0.82257958  0.17512626     0.03270
C2861       C  0.78520241  0.91526795  0.13374692     0.37920
C2862       C  0.79977655  0.76508161  0.16004458     0.37910
C2863       C  0.76670300  0.80900944  0.19880045     0.36330
C2864       C  0.88175127  0.93381241  0.14090640     0.36330
N2865       N  0.76311841  0.80151458  0.21846176    -0.38490
N2866       N  0.91156418  0.97204863  0.13639473    -0.38490
N2867       N  0.79060098  0.72639597  0.15468534    -0.37930
N2868       N  0.77687790  0.93956409  0.12195684    -0.37940
C2869       C  0.86710731  0.78378347  0.23461079    -0.04600
C2870       C  0.86993195  0.75424558  0.21680403    -0.01720
C2871       C  0.88471648  0.77162977  0.19420334     0.03270
C2872       C  0.90163384  0.82031138  0.18913220    -0.04600
C2873       C  0.89772265  0.84975250  0.20641915    -0.01710
C2874       C  0.88110558  0.83203506  0.22891494     0.03270
C2875       C  0.85394284  0.70422090  0.22110801     0.37920
C2876       C  0.91821307  0.90052303  0.20223872     0.37910
C2877       C  0.87998942  0.86443132  0.24626812     0.36330
C2878       C  0.87952302  0.73835079  0.17550238     0.36330
N2879       N  0.87955358  0.89079803  0.26001113    -0.38490
N2880       N  0.87597846  0.71159727  0.16081061    -0.38490
N2881       N  0.93724736  0.94153928  0.19934526    -0.37930
N2882       N  0.83982681  0.66428379  0.22536552    -0.37940
C2883       C  0.65828745  0.62367102  0.25275969    -0.04600
C2884       C  0.68705608  0.66190166  0.23857797    -0.01720
C2885       C  0.69486421  0.65161785  0.21583038     0.03270
C2886       C  0.66376460  0.60649176  0.20396082    -0.04600
C2887       C  0.62683939  0.57009523  0.21727840    -0.01710
C2888       C  0.62659062  0.57773431  0.24181436     0.03270
C2889       C  0.71757892  0.70994529  0.24961541     0.37920
C2890       C  0.59018349  0.52457090  0.20597788     0.37910
C2891       C  0.59588957  0.53790640  0.25607827     0.36330
C2892       C  0.73831874  0.68638914  0.20616892     0.36330
N2893       N  0.57139287  0.50602062  0.26749607    -0.38490
N2894       N  0.77466962  0.71641697  0.20023697    -0.38490
N2895       N  0.56100227  0.48842284  0.19674737    -0.37930
N2896       N  0.74130634  0.74714150  0.25935864    -0.37940
C2897       C  0.92749138  0.65664409  0.25781874    -0.04600
C2898       C  0.91487201  0.60913228  0.25262820    -0.01720
C2899       C  0.91367145  0.59388721  0.22942881     0.03270
C2900       C  0.91927049  0.62472046  0.21022401    -0.04600
C2901       C  0.93547205  0.67442331  0.21657111    -0.01710
C2902       C  0.94268642  0.69021756  0.24029367     0.03270
C2903       C  0.90177505  0.57533801  0.27148081     0.37920
C2904       C  0.94882979  0.71208611  0.20007269     0.37910
C2905       C  0.96189694  0.74095515  0.24691745     0.36330
C2906       C  0.91348691  0.54896016  0.22722374     0.36330
N2907       N  0.97716529  0.78126129  0.25219816    -0.38490
N2908       N  0.91518399  0.51386709  0.22856542    -0.38490
N2909       N  0.46599343  0.74607223  0.18891413    -0.37930
N2910       N  0.89128540  0.54848069  0.28644747    -0.37940
C2911       C  0.95244954  0.73956378  0.41597941    -0.04600
C2912       C  0.99208736  0.78133595  0.42685404    -0.01720
C2913       C  0.00206489  0.78230552  0.45128542     0.03270
C2914       C  0.96735654  0.74685931  0.46539926    -0.04600
C2915       C  0.92479808  0.70917842  0.45426458    -0.01710
C2916       C  0.92143973  0.70187085  0.42993518     0.03270
C2917       C  0.02581969  0.81955225  0.41263641     0.37920
C2918       C  0.88402156  0.68212636  0.46827370     0.37910
C2919       C  0.90262516  0.65383874  0.42038242     0.36330
C2920       C  0.05100167  0.81119297  0.46057055     0.36330
N2921       N  0.89455969  0.61775695  0.41166847    -0.38490
N2922       N  0.59118035  0.83038300  0.46713778    -0.38490
N2923       N  0.85321365  0.66529514  0.48101264    -0.37930
N2924       N  0.05279430  0.84991853  0.40119955    -0.37940
C2925       C  0.75373014  0.56224491  0.42140664    -0.04600
C2926       C  0.79243649  0.56025222  0.43160039    -0.01720
C2927       C  0.79312412  0.55452692  0.45540116     0.03270
C2928       C  0.74844345  0.52469055  0.46600949    -0.04600
C2929       C  0.70609179  0.50712659  0.45065427    -0.01710
C2930       C  0.70797394  0.53201057  0.43009822     0.03270
C2931       C  0.80871874  0.53393923  0.41785963     0.37920
C2932       C  0.67058991  0.45664032  0.45013601     0.37910
C2933       C  0.66393607  0.52181396  0.41688508     0.36330
C2934       C  0.84057718  0.57472814  0.46677843     0.36330
N2935       N  0.62866617  0.51353435  0.40629900    -0.38490
N2936       N  0.87916738  0.59076085  0.47546113    -0.38490
N2937       N  0.64461663  0.41543557  0.44772861    -0.37930
N2938       N  0.81976984  0.51137230  0.40667108    -0.37940
C2939       C  0.71239745  0.70240395  0.42070633    -0.04600
C2940       C  0.68476002  0.72418827  0.42556025    -0.01720
C2941       C  0.68751486  0.74424839  0.44849846     0.03270
C2942       C  0.71819931  0.74282401  0.46711241    -0.04600
C2943       C  0.74188349  0.71752759  0.46275516    -0.01710
C2944       C  0.73811215  0.69667074  0.44035605     0.03270
C2945       C  0.65783439  0.73092810  0.40637935     0.37920
C2946       C  0.77514019  0.71807784  0.48120846     0.37910
C2947       C  0.76516584  0.67271516  0.43847373     0.36330
C2948       C  0.66815232  0.77584489  0.45099075     0.36330
N2949       N  0.79039298  0.65719815  0.44135135    -0.38490
N2950       N  0.65497050  0.80327459  0.45177938    -0.38490
N2951       N  0.80221456  0.72051550  0.49606611    -0.37930
N2952       N  0.63637207  0.73639665  0.39106188    -0.37940
loop_ 
_geom_bond_atom_site_label_1 
_geom_bond_atom_site_label_2 
_geom_bond_distance 
_geom_bond_site_symmetry_2 
_ccdc_geom_bond_type 
Zr1           O2   2.434       .  S
Zr1           O3   2.474       .  S
Zr1           O4   2.381       .  S
Zr1           O7   2.404       .  S
Zr1           O9   2.371       .  S
Zr1          O10   2.382       .  S
Zr1          O11   2.409       .  S
Zr1          O12   2.389       .  S
O2           H58   0.981       .  S
O2           H66   0.992       .  S
O3           C23   1.293       .  A
O4           C25   1.264       .  A
O5          Zr15   2.467       .  S
O5           C24   1.282       .  A
O6          Zr14   2.581       .  S
O6           C25   1.309       .  A
O7           C24   1.264       .  A
O8          Zr16   2.359       .  S
O8           C23   1.262       .  A
O9          Zr14   2.372       .  S
O9          Zr16   2.385       .  S
O10         Zr15   2.391       .  S
O10         Zr16   2.394       .  S
O10          H45   0.963       .  S
O11         Zr14   2.401       .  S
O11         Zr31   2.420       .  S
O11          H48   0.966       .  S
O12         Zr15   2.391       .  S
O12         Zr31   2.411       .  S
Zr13         O38   2.441       .  S
Zr13         O32   2.448       .  S
Zr13         O40   2.373       .  S
Zr13         O28   2.373       .  S
Zr13         O19   2.368       .  S
Zr13         O20   2.396       .  S
Zr13         O21   2.380       .  S
Zr13         O22   2.368       .  S
Zr14         O33   2.435       .  S
Zr14         O26   2.433       .  S
Zr14         O27   2.520       .  S
Zr14         O20   2.412       .  S
Zr14         O21   2.424       .  S
Zr15         O17   2.434       .  S
Zr15         O39   2.436       .  S
Zr15         O41   2.437       .  S
Zr15         O19   2.396       .  S
Zr15         O22   2.395       .  S
Zr16         O42   2.425       .  S
Zr16         O43   2.440       .  S
Zr16         O18   2.440       .  S
Zr16         O19   2.375       .  S
Zr16         O20   2.352       .  S
O17          H54   0.990       .  S
O18          H49   0.990   1_545  S
O18          H63   0.990       .  S
O20          H46   0.965       .  S
O21         Zr31   2.372       .  S
O22         Zr31   2.361       .  S
O22          H47   0.965       .  S
C23         C711   1.465       .  S
C24         C697   1.485       .  S
C25         C725   1.534       .  S
O26          H62   0.990       .  S
O27          C29   1.303       .  A
O28          C29   1.274       .  A
C29         C669   1.483       .  S
O30         Zr31   2.439       .  S
O30          H59   0.990       .  S
Zr31         O34   2.435       .  S
Zr31         O35   2.438       .  S
Zr31         O36   2.484       .  S
O32          C37   1.289       .  A
O33          H50   0.990       .  S
O33          H65   0.990       .  S
O34          H51   0.989       .  S
O35          H55   0.990       .  S
O35          H64   0.990       .  S
O36          C37   1.292       .  A
C37         C655   1.537       .  S
O38          H57   0.990       .  S
O38          H61   0.989       .  S
O39          H53   0.990       .  S
O39          H60   0.990       .  S
O40          C44   1.274       .  A
O41          C44   1.285       .  A
O42          H52   0.990       .  S
O43          H56   0.989       .  S
C44         C683   1.455       .  S
C67         C641   1.571       .  S
C67          C68   1.490       .  A
C67          C72   1.465       .  A
C68         C616   1.607       .  S
C68          C69   1.494       .  A
C69         C585   1.544       .  S
C69          C70   1.470       .  A
C70         C627   1.575       .  S
C70          C71   1.446       .  A
C71         C599   1.543       .  S
C71          C72   1.450       .  A
C72         C571   1.544       .  S
C73          C74   1.437       .  D
C73         C588   1.605       .  S
C73         C672   1.548       .  S
C74         C557   1.496       .  S
C74         C574   1.601       .  S
C75          C76   1.438       .  D
C75         C658   1.537       .  S
C75        C2106   1.620       .  S
C76         C543   1.527       .  S
C76         C644   1.574       .  S
C77          C78   1.412       .  D
C77         C613   1.551       .  S
C77         C686   1.546       .  S
C78         C529   1.543       .  S
C78        C2078   1.562       .  S
C79          C80   1.452       .  D
C79         C501   1.615       .  S
C79         C700   1.510       .  S
C80         C490   1.568       .  S
C80         C515   1.604       .  S
C81         C820   1.417   1_545  D
C81         C714   1.535       .  S
C81        C1197   1.544   1_545  S
C82         C819   1.417       .  D
C82         C448   1.544       .  S
C82         C473   1.566       .  S
C83         C476   1.627   1_545  S
C83          C88   1.498       .  A
C83        C2298   1.487   1_445  A
C84         C518   1.536       .  S
C84          C85   1.468       .  A
C84        C2297   1.487       .  A
C85         C431   1.576       .  S
C85         C824   1.454       .  A
C86         C462   1.551       .  S
C86          C87   1.458       .  A
C86         C823   1.454   1_545  A
C87         C504   1.578       .  S
C87        C1564   1.488       .  A
C88         C417   1.553       .  S
C88        C1563   1.488   1_455  A
C89          C90   1.438       .  D
C89         C434   1.605       .  S
C89         C728   1.542       .  S
C90         C406   1.559       .  S
C90         C420   1.526       .  S
Zr91         O92   2.409       .  S
Zr91         O97   2.319   1_545  S
Zr91       O1569   2.381       .  S
Zr91       O1570   2.318       .  S
Zr91        O102   2.365       .  S
Zr91       O1575   2.349       .  S
Zr91        O838   2.354   1_545  S
Zr91       O1577   2.369       .  S
O92         H148   0.990       .  S
O92         H156   0.984       .  S
O93       Zr1567   2.381   1_455  S
O93         C113   1.274   1_545  A
O94       Zr1567   2.318   1_455  S
O94         C115   1.266       .  A
O95        Zr105   2.589       .  S
O95         C114   1.314       .  A
O96        Zr104   2.529   1_556  S
O96         C115   1.302       .  A
O97         C852   1.264       .  A
O98        Zr106   2.446       .  S
O98         C113   1.284       .  A
O99        Zr104   2.388   1_556  S
O99        Zr106   2.379   1_545  S
O99       Zr1567   2.349   1_455  S
O100       Zr105   2.381       .  S
O100       Zr829   2.354       .  S
O100      Zr2320   2.376       .  S
O100        H135   0.966       .  S
O101       Zr104   2.378   1_656  S
O101      Zr1567   2.369       .  S
O101      Zr1597   2.379   1_556  S
O101        H138   0.964   1_655  S
O102       Zr121   2.386   1_556  S
O102       Zr843   2.372   1_545  S
Zr103       O866   2.446   1_655  S
Zr103       O118   2.405   1_665  S
Zr103      O1598   2.451   1_565  S
Zr103      O2344   2.407       .  S
Zr103       O110   2.392   1_665  S
Zr103       O111   2.369   1_665  S
Zr103      O2323   2.396       .  S
Zr103      O1588   2.395       .  S
Zr104       O123   2.435       .  S
Zr104       O116   2.435   1_554  S
Zr104       O117   2.490       .  S
Zr104       O110   2.405       .  S
Zr104       O111   2.407       .  S
Zr105       O107   2.434   1_556  S
Zr105       O129   2.434       .  S
Zr105       O131   2.517   1_556  S
Zr105       O109   2.427   1_556  S
Zr105       O840   2.372       .  S
Zr105       O850   2.424   1_556  S
Zr106       O108   2.437       .  S
Zr106       O870   2.434       .  S
Zr106       O871   2.439   1_556  S
Zr106       O110   2.403   1_566  S
Zr106      O2314   2.376   1_455  S
Zr106      O2323   2.397   1_456  S
O107        H144   0.990   1_554  S
O108        H139   0.990       .  S
O108        H153   0.990   1_565  S
O109      Zr2317   2.396       .  S
O109      Zr2320   2.397   1_554  S
O110        H136   0.965       .  S
O111      Zr1597   2.397   1_455  S
O112       Zr121   2.389   1_565  S
O112      Zr1579   2.395       .  S
O112       Zr843   2.424   1_554  S
O112        H137   0.965       .  S
C113        C389   1.510       .  S
C114        O835   1.264       .  A
C114        C364   1.519       .  S
C115        C378   1.483       .  S
O116        H152   0.990       .  S
O117        C119   1.294       .  A
O118        C119   1.279       .  A
C119        C560   1.491       .  S
O120       Zr121   2.441   1_556  S
O120        H149   0.990   1_556  S
Zr121       O125   2.439       .  S
Zr121      O1600   2.439       .  S
Zr121       O126   2.370       .  S
Zr121      O1577   2.379   1_554  S
Zr121      O1587   2.397       .  S
O122      Zr1579   2.451   1_545  S
O122        C127   1.289       .  A
O123        H140   0.990       .  S
O123        H155   0.990       .  S
O124      Zr1597   2.439       .  S
O124       H1617   0.990       .  S
O125        H145   0.990       .  S
O125        H154   0.990   1_545  S
O126        C127   1.267       .  A
C127        C532   1.497       .  S
O128       Zr841   2.446   1_455  S
O128        H147   0.985       .  S
O128        H889   0.991       .  S
O129        H143   0.990       .  S
O129        H150   0.990       .  S
O130      Zr2317   2.407       .  S
O130        C134   1.267       .  A
O131        C134   1.294       .  A
O132       Zr844   2.434       .  S
O132        H142   0.990       .  S
O133       Zr844   2.439   1_554  S
O133        H146   0.990       .  S
C134        C546   1.503       .  S
H141       O1600   0.990       .  S
H151        O866   0.991       .  S
Zr157       O158   2.424       .  S
Zr157       O159   2.442       .  S
Zr157       O160   2.296       .  S
Zr157       O163   2.314       .  S
Zr157       O165   2.348       .  S
Zr157       O166   2.353       .  S
Zr157       O167   2.392       .  S
Zr157       O168   2.359       .  S
O158        H214   0.988       .  S
O158        H222   0.989       .  S
O159        C179   1.287       .  A
O160        C181   1.245       .  A
O161       Zr171   2.602       .  S
O161        C180   1.318       .  A
O162       Zr170   2.571       .  S
O162        C181   1.303       .  A
O163        C180   1.261       .  A
O164       Zr172   2.448       .  S
O164        C179   1.283       .  A
O165       Zr170   2.404       .  S
O165       Zr172   2.394       .  S
O166       Zr171   2.376       .  S
O166       Zr172   2.364       .  S
O166        H201   0.966       .  S
O167       Zr170   2.366       .  S
O167       Zr187   2.349       .  S
O167        H204   0.967       .  S
O168       Zr171   2.364       .  S
O168       Zr187   2.386       .  S
Zr169       O194   2.450       .  S
Zr169       O188   2.471       .  S
Zr169       O196   2.364       .  S
Zr169       O184   2.371       .  S
Zr169       O175   2.401       .  S
Zr169       O176   2.435       .  S
Zr169       O177   2.382       .  S
Zr169       O178   2.374       .  S
Zr170       O189   2.438   1_455  S
Zr170      O1658   2.434   1_455  S
Zr170       O183   2.496   1_455  S
Zr170       O176   2.427       .  S
Zr170       O177   2.431       .  S
Zr171       O173   2.433       .  S
Zr171       O195   2.434       .  S
Zr171       O197   2.548       .  S
Zr171       O175   2.419       .  S
Zr171       O178   2.400       .  S
Zr172       O198   2.433       .  S
Zr172       O199   2.439       .  S
Zr172       O174   2.437       .  S
Zr172       O175   2.417       .  S
Zr172       O176   2.381       .  S
O173        H210   0.990       .  S
O174        H205   0.990       .  S
O174        H219   0.990   1_455  S
O176        H202   0.966       .  S
O177       Zr187   2.381       .  S
O178       Zr187   2.370       .  S
O178        H203   0.962       .  S
C179        C333   1.516       .  S
C180        C319   1.514       .  S
C181        C347   1.511       .  S
O182      Zr1646   2.434       .  S
O182        H218   0.990       .  S
O183        C185   1.290       .  A
O184        C185   1.253   1_455  A
C185        C487   1.487       .  S
O186       Zr187   2.441       .  S
O186        H215   0.990       .  S
Zr187       O190   2.438       .  S
Zr187       O191   2.440       .  S
Zr187       O192   2.351       .  S
O188        C193   1.292       .  A
O189        H206   0.990       .  S
O189        H221   0.990       .  S
O190        H207   0.990       .  S
O191        H211   0.990       .  S
O191        H220   0.990       .  S
O192        C193   1.267       .  A
C193        C445   1.476       .  S
O194        H213   0.990       .  S
O194        H217   0.987       .  S
O195        H209   0.990       .  S
O195        H216   0.990       .  S
O196        C200   1.273       .  A
O197        C200   1.307       .  A
O198        H208   0.990       .  S
O199        H212   0.990       .  S
C200        C403   1.502       .  S
C223        C224   1.428       .  D
C223        C305   1.590       .  S
C223        C361   1.500       .  S
C224        C322   1.520       .  S
C224       C1032   1.621       .  S
C225        C249   1.600       .  S
C225        C226   1.473       .  A
C225        C230   1.454       .  A
C226        C308   1.528       .  S
C226        C227   1.486       .  A
C227        C280   1.598       .  S
C227        C228   1.481       .  A
C228        C235   1.594       .  S
C228        C229   1.474       .  A
C229        C291   1.537       .  S
C229        C230   1.471       .  A
C230        C263   1.561       .  S
C231        C232   1.432       .  D
C231        C252   1.574       .  S
C231        C375   1.546       .  S
C232        C336   1.545       .  S
C232       C1714   1.595       .  S
C233        C234   1.408       .  D
C233        C392   1.509       .  S
C233       C1004   1.568       .  S
C234        C350   1.529       .  S
C234       C1753   1.557   1_455  S
C235        C236   1.433       .  A
C235        C240   1.433       .  A
C236        C237   1.437       .  A
C236        C241   1.441       .  S
C237        C238   1.428       .  A
C237        C244   1.452       .  S
C238        C239   1.435       .  A
C238       C1708   1.595       .  S
C239        C240   1.449       .  A
C239        C242   1.449       .  S
C240        C243   1.440       .  S
C241        N248   1.158       .  T
C242       N1723   1.158       .  T
C243        N245   1.154       .  T
C244        N246   1.157       .  T
N247       C1718   1.158       .  T
C249        C250   1.427       .  A
C249        C254   1.406       .  A
C250        C251   1.453       .  A
C250        C255   1.445       .  S
C251        C252   1.446       .  A
C251        C258   1.442       .  S
C252        C253   1.420       .  A
C253        C254   1.415       .  A
C253        C256   1.427       .  S
C254        C257   1.452       .  S
C255        N262   1.157       .  T
C256        N261   1.151       .  T
C257        N259   1.158       .  T
C258        N260   1.155       .  T
C263        C264   1.423       .  A
C263        C268   1.419       .  A
C264        C265   1.441       .  A
C264        C269   1.444       .  S
C265        C266   1.428       .  A
C265        C272   1.447       .  S
C266        C267   1.430       .  A
C266        C971   1.568   1_545  S
C267        C268   1.427       .  A
C267        C270   1.448   1_545  S
C268        C271   1.443       .  S
C269        N276   1.155       .  T
C270       N1013   1.157       .  T
C271        N273   1.157       .  T
C272        N274   1.157       .  T
N275       C1008   1.157       .  T
C277        C278   1.418       .  A
C277        C282   1.395       .  A
C277       C1710   1.557       .  S
C278        C279   1.441       .  A
C278        C283   1.417       .  S
C279        C280   1.418       .  A
C279        C286   1.434       .  S
C280        C281   1.422       .  A
C281        C282   1.410       .  A
C281        C284   1.447       .  S
C282        C285   1.424       .  S
C283       N1766   1.151       .  T
C284        N289   1.157       .  T
C285        N287   1.154       .  T
C286        N288   1.156       .  T
N290       C1759   1.151       .  T
C291        C292   1.404       .  A
C291        C296   1.402       .  A
C292        C293   1.429       .  A
C292        C297   1.446       .  S
C293        C294   1.449       .  A
C293        C300   1.448       .  S
C294        C295   1.451       .  A
C294        C962   1.621   1_545  S
C295        C296   1.432       .  A
C295        C298   1.437       .  S
C296        C299   1.446       .  S
C297        N304   1.157       .  T
C298       N1041   1.157   1_545  T
C299        N301   1.157       .  T
C300        N302   1.158       .  T
N303       C1036   1.157       .  T
C305        C306   1.458       .  A
C305        C310   1.445       .  A
C306        C307   1.420       .  A
C306        C311   1.451       .  S
C307        C308   1.401       .  A
C307        C314   1.455       .  S
C308        C309   1.415       .  A
C309        C310   1.432       .  A
C309        C312   1.449       .  S
C310        C313   1.446       .  S
C311        N318   1.158       .  T
C312        N317   1.155       .  T
C313        N315   1.159       .  T
C314        N316   1.154       .  T
C319        C320   1.427       .  A
C319        C324   1.405       .  A
C320        C321   1.398       .  A
C320        C325   1.437       .  S
C321        C322   1.391       .  A
C321        C328   1.448       .  S
C322        C323   1.422       .  A
C323        C324   1.430       .  A
C323        C326   1.411       .  S
C324        C327   1.444       .  S
C325        N332   1.157       .  T
C326        N331   1.144       .  T
C327        N329   1.156       .  T
C328        N330   1.157       .  T
C333        C334   1.405       .  A
C333        C338   1.416       .  A
C334        C335   1.404       .  A
C334        C339   1.433       .  S
C335        C336   1.394       .  A
C335        C342   1.431       .  S
C336        C337   1.419       .  A
C337        C338   1.430       .  A
C337        C340   1.418       .  S
C338        C341   1.449       .  S
C339        N346   1.154       .  T
C340        N345   1.148       .  T
C341        N343   1.157       .  T
C342        N344   1.156       .  T
C347        C348   1.405       .  A
C347        C352   1.435       .  A
C348        C349   1.431       .  A
C348        C353   1.446   1_455  S
C349        C350   1.429       .  A
C349        C356   1.439   1_455  S
C350        C351   1.395       .  A
C351        C352   1.388       .  A
C351        C354   1.444       .  S
C352        C355   1.452       .  S
C353        N360   1.157       .  T
C354        N359   1.157       .  T
C355        N357   1.152       .  T
C356        N358   1.157       .  T
C361        C362   1.396       .  A
C361        C366   1.423       .  A
C362        C363   1.395       .  A
C362       C1105   1.450       .  S
C363        C364   1.424       .  A
C363       C1108   1.430       .  S
C364        C365   1.405       .  A
C365        C366   1.433       .  A
C365        C368   1.443       .  S
C366        C369   1.440       .  S
C367       C1100   1.450   1_545  S
C367        N374   1.158       .  T
C368        N373   1.157       .  T
C369        N371   1.157       .  T
C370       C1101   1.430   1_545  S
C370        N372   1.154       .  T
C375        C376   1.419       .  A
C375        C380   1.431       .  A
C376        C377   1.409       .  A
C376        C381   1.435   1_455  S
C377        C378   1.411       .  A
C377       C1860   1.445   1_455  S
C378        C379   1.388       .  A
C379        C380   1.410       .  A
C379        C382   1.448       .  S
C380        C383   1.415       .  S
C381       N1864   1.155       .  T
C382        N387   1.157       .  T
C383        N385   1.146       .  T
C384       C1853   1.445       .  S
C384        N386   1.157       .  T
N388       C1857   1.155       .  T
C389        C390   1.423       .  A
C389       C1132   1.415       .  A
C390       C1129   1.406       .  A
C390       C1871   1.445   1_565  S
C391        C392   1.406       .  A
C391       C1128   1.406       .  A
C391       C2612   1.451       .  S
C392        C393   1.417       .  A
C393        C394   1.414       .  A
C393        C396   1.437       .  S
C394       C1127   1.415       .  A
C394        C397   1.452       .  S
C395       C1866   1.445   1_545  S
C395        N402   1.153       .  T
C396        N401   1.152       .  T
C397        N399   1.157       .  T
C398       C2605   1.451   1_545  S
C398        N400   1.155       .  T
C403        C404   1.411       .  A
C403        C408   1.404       .  A
C404        C405   1.427       .  A
C404        C409   1.430       .  S
C405        C406   1.390       .  A
C405        C412   1.439       .  S
C406        C407   1.437       .  A
C407        C408   1.416       .  A
C407        C410   1.444       .  S
C408        C411   1.454       .  S
C409        N416   1.156       .  T
C410        N415   1.156       .  T
C411        N413   1.157       .  T
C412        N414   1.158       .  T
C417        C418   1.422       .  A
C417        C422   1.429       .  A
C418        C419   1.402       .  A
C418        C423   1.439       .  S
C419        C420   1.394       .  A
C419        C426   1.437       .  S
C420        C421   1.411       .  A
C421        C422   1.435       .  A
C421        C424   1.442       .  S
C422        C425   1.445       .  S
C423        N430   1.158       .  T
C424        N429   1.157       .  T
C425        N427   1.156       .  T
C426        N428   1.156       .  T
C431        C432   1.423       .  A
C431        C436   1.413       .  A
C432        C433   1.443       .  A
C432        C437   1.438       .  S
C433        C434   1.435       .  A
C433        C440   1.444       .  S
C434        C435   1.449       .  A
C435        C436   1.435       .  A
C435        C438   1.447       .  S
C436        C439   1.446       .  S
C437        N444   1.156       .  T
C438        N443   1.158       .  T
C439        N441   1.157       .  T
C440        N442   1.157       .  T
C445        C446   1.396       .  A
C445        C450   1.405       .  A
C446        C447   1.407       .  A
C446        C451   1.449       .  S
C447        C448   1.431       .  A
C447        C454   1.430       .  S
C448        C449   1.419       .  A
C449        C450   1.409       .  A
C449        C452   1.429       .  S
C450        C453   1.453       .  S
C451        N458   1.157       .  T
C452        N457   1.150       .  T
C453        N455   1.157       .  T
C454        N456   1.158       .  T
C459        C460   1.425       .  A
C459       C1202   1.429       .  A
C459        C819   1.544       .  S
C460        C461   1.414       .  A
C460        C465   1.448       .  S
C461       C1200   1.409       .  A
C461        C468   1.436       .  S
C462        C463   1.428       .  A
C462       C1199   1.409   1_545  A
C463        C464   1.439       .  A
C463        C466   1.442       .  S
C464       C1197   1.429   1_545  A
C464        C467   1.446       .  S
C465        N472   1.156       .  T
C466        N471   1.157       .  T
C467        N469   1.157       .  T
C468        N470   1.155       .  T
C473        C478   1.410       .  A
C473       C1212   1.412       .  A
C474        C475   1.440       .  A
C474       C1211   1.412   1_545  A
C474        C479   1.435       .  S
C475        C476   1.439   1_545  A
C475        C482   1.440       .  S
C476       C1215   1.430       .  A
C477        C478   1.431       .  A
C477       C1214   1.430       .  A
C477        C480   1.438       .  S
C478        C481   1.446       .  S
C479        N486   1.152       .  T
C480       N1961   1.157       .  T
C481        N483   1.157       .  T
C482        N484   1.156       .  T
N485       C1956   1.157       .  T
C487        C488   1.402   1_655  A
C487        C492   1.417       .  A
C488        C489   1.419       .  A
C488        C493   1.453       .  S
C489       C1966   1.436       .  A
C489        C496   1.431       .  S
C490        C491   1.393       .  A
C490       C1965   1.436       .  A
C491       C1968   1.408       .  A
C491        C494   1.442       .  S
C492       C1967   1.408   1_655  A
C492        C495   1.449       .  S
C493        N500   1.157       .  T
C494        N499   1.156       .  T
C495       N1973   1.157       .  T
C496        N498   1.153       .  T
N497       C1971   1.157       .  T
C501        C502   1.425       .  A
C501        C506   1.457       .  A
C502        C503   1.444       .  A
C502        C507   1.442       .  S
C503        C504   1.425       .  A
C503        C510   1.438       .  S
C504        C505   1.413       .  A
C505        C506   1.438       .  A
C505       C1984   1.448       .  S
C506       C1985   1.448       .  S
C507        N514   1.157       .  T
C508       C1981   1.448       .  S
C508        N513   1.157       .  T
C509       C1982   1.448   1_455  S
C509        N511   1.158       .  T
C510        N512   1.157       .  T
C515        C516   1.424       .  A
C515        C520   1.416       .  A
C516        C517   1.427       .  A
C516        C521   1.447       .  S
C517        C518   1.415       .  A
C517        C524   1.447       .  S
C518        C519   1.421       .  A
C519        C520   1.424       .  A
C519        C522   1.446       .  S
C520        C523   1.428       .  S
C521        N528   1.157       .  T
C522        N527   1.158       .  T
C523        N525   1.150       .  T
C524        N526   1.158       .  T
C529        C530   1.433       .  A
C529        C534   1.419       .  A
C530        C531   1.424       .  A
C530        C535   1.431       .  S
C531        C532   1.404       .  A
C531        C538   1.452       .  S
C532       C2009   1.390       .  A
C533       C2008   1.390       .  A
C533       C2010   1.399       .  A
C533        C536   1.435       .  S
C534       C2009   1.399       .  A
C534       C2013   1.435       .  S
C535        N542   1.152       .  T
C536        N541   1.155   1_655  T
C537       C2010   1.435   1_455  S
C537        N539   1.156       .  T
C538        N540   1.157       .  T
C543        C544   1.387       .  A
C543        C548   1.432       .  A
C544        C545   1.415       .  A
C544        C549   1.440       .  S
C545        C546   1.394       .  A
C545        C552   1.437       .  S
C546        C547   1.408       .  A
C547        C548   1.436       .  A
C547        C550   1.447       .  S
C548        C551   1.434       .  S
C549        N556   1.156       .  T
C550        N555   1.157       .  T
C551        N553   1.153       .  T
C552       N1292   1.157       .  T
N554       C1290   1.157       .  T
C557        C558   1.414       .  A
C557        C562   1.381       .  A
C558        C559   1.432       .  A
C558        C563   1.430       .  S
C559        C560   1.420       .  A
C559        C566   1.444       .  S
C560        C561   1.402       .  A
C561        C562   1.403       .  A
C561        C564   1.446       .  S
C562        C565   1.445       .  S
C563        N570   1.151       .  T
C564        N569   1.158       .  T
C565        N567   1.157       .  T
C566        N568   1.157       .  T
C571        C572   1.409       .  A
C571        C576   1.417       .  A
C572        C573   1.432       .  A
C572        C577   1.454       .  S
C573        C574   1.459       .  A
C573        C580   1.450       .  S
C574        C575   1.423       .  A
C575        C576   1.414       .  A
C575        C578   1.440       .  S
C576        C579   1.439       .  S
C577        N584   1.157       .  T
C578        N583   1.156       .  T
C579        N581   1.157       .  T
C580        N582   1.158       .  T
C585        C586   1.411       .  A
C585        C590   1.413       .  A
C586        C587   1.424       .  A
C586        C591   1.446       .  S
C587       C1326   1.439       .  A
C587       C1332   1.440       .  S
C588        C589   1.446       .  A
C588       C1325   1.439       .  A
C589       C1328   1.433   1_545  A
C589        C592   1.439       .  S
C590       C1327   1.433       .  A
C590        C593   1.445       .  S
C591        N598   1.157       .  T
C592        N597   1.157       .  T
C593        N595   1.157       .  T
C594       C1325   1.440       .  S
C594        N596   1.153       .  T
C599        C600   1.416       .  A
C599        C604   1.416       .  A
C600        C601   1.426       .  A
C600        C605   1.443       .  S
C601        C602   1.434   1_455  A
C601       C2084   1.449   1_455  S
C602        C603   1.432   1_655  A
C602       C1554   1.562       .  S
C603        C604   1.422       .  A
C603        C606   1.446       .  S
C604        C607   1.443       .  S
C605        N612   1.157       .  T
C606        N611   1.158       .  T
C607        N609   1.157       .  T
C608       C2077   1.449       .  S
C608        N610   1.157       .  T
C613        C618   1.414       .  A
C613       C1352   1.416       .  A
C614        C615   1.445       .  A
C614       C1351   1.416       .  A
C614        C619   1.446       .  S
C615        C616   1.434       .  A
C615        C622   1.439       .  S
C616        C617   1.417       .  A
C617       C1356   1.413       .  A
C617        C620   1.447       .  S
C618       C1355   1.413       .  A
C618        C621   1.439       .  S
C619        N626   1.158       .  T
C620        N625   1.158       .  T
C621        N623   1.156       .  T
C622        N624   1.155       .  T
C627        C628   1.422       .  A
C627        C632   1.408       .  A
C628        C629   1.452       .  A
C628        C633   1.446       .  S
C629        C630   1.445   1_455  A
C629        C636   1.439   1_455  S
C630        C631   1.455   1_655  A
C630       C1551   1.620       .  S
C631        C632   1.438       .  A
C631       C2110   1.447   1_455  S
C632        C635   1.445       .  S
C633        N640   1.157       .  T
C634       C2107   1.447       .  S
C634        N639   1.158       .  T
C635        N637   1.156       .  T
C636        N638   1.157       .  T
C641        C642   1.416       .  A
C641        C646   1.431       .  A
C642        C643   1.431       .  A
C642        C647   1.449       .  S
C643        C644   1.431       .  A
C643        C650   1.421       .  S
C644        C645   1.395       .  A
C645        C646   1.425       .  A
C645        C648   1.429       .  S
C646        C649   1.431       .  S
C647        N654   1.156       .  T
C648        N653   1.155       .  T
C649        N651   1.154       .  T
C650        N652   1.151       .  T
C655        C656   1.425       .  A
C655        C660   1.422       .  A
C656        C657   1.422       .  A
C656        C661   1.443       .  S
C657        C658   1.408       .  A
C657        C664   1.449       .  S
C658        C659   1.417       .  A
C659        C660   1.430       .  A
C659        C662   1.441       .  S
C660        C663   1.448       .  S
C661        N668   1.155       .  T
C662        N667   1.153       .  T
C663        N665   1.157       .  T
C664        N666   1.157       .  T
C669        C670   1.400       .  A
C669        C674   1.413       .  A
C670        C671   1.408       .  A
C670        C675   1.457       .  S
C671        C672   1.415       .  A
C671        C678   1.415       .  S
C672        C673   1.432       .  A
C673        C674   1.428       .  A
C673        C676   1.448       .  S
C674        C677   1.446       .  S
C675        N682   1.157       .  T
C676        N681   1.157   1_545  T
C677        N679   1.157       .  T
C678        N680   1.143       .  T
C683        C684   1.389       .  A
C683        C688   1.394       .  A
C684        C685   1.406       .  A
C684        C689   1.457       .  S
C685        C686   1.443       .  A
C685        C692   1.443       .  S
C686        C687   1.441       .  A
C687        C688   1.414       .  A
C687        C690   1.440       .  S
C688        C691   1.456       .  S
C689        N696   1.157       .  T
C690       N2171   1.157       .  T
C691        N693   1.157       .  T
C692        N694   1.157       .  T
N695       C2166   1.157       .  T
C697        C698   1.406       .  A
C697        C702   1.402       .  A
C698        C699   1.418       .  A
C698        C703   1.448       .  S
C699        C700   1.417       .  A
C699        C706   1.426       .  S
C700        C701   1.398       .  A
C701        C702   1.403       .  A
C701        C704   1.439       .  S
C702        C705   1.431       .  S
C703        N710   1.157       .  T
C704        N709   1.157       .  T
C705        N707   1.153       .  T
C706       N2184   1.149       .  T
N708       C2182   1.149       .  T
C711        C712   1.375       .  A
C711        C716   1.406       .  A
C712        C713   1.379       .  A
C712        C717   1.443       .  S
C713        C714   1.429       .  A
C713        C720   1.432       .  S
C714        C715   1.424       .  A
C715        C716   1.416       .  A
C715        C718   1.429   1_545  S
C716        C719   1.446       .  S
C717        N724   1.156       .  T
C718        N723   1.152       .  T
C719        N721   1.157       .  T
C720        N722   1.153       .  T
C725        C726   1.414       .  A
C725        C730   1.430       .  A
C726        C727   1.439       .  A
C726        C731   1.449       .  S
C727        C728   1.431       .  A
C727        C734   1.441       .  S
C728        C729   1.392       .  A
C729        C730   1.415       .  A
C729        C732   1.457       .  S
C730        C733   1.428       .  S
C731        N738   1.157       .  T
C732        N737   1.158       .  T
C733        N735   1.151       .  T
C734        N736   1.155       .  T
Zr739       O740   2.434       .  S
Zr739       O741   2.474       .  S
Zr739       O742   2.381       .  S
Zr739       O745   2.404       .  S
Zr739       O747   2.371       .  S
Zr739       O748   2.382       .  S
Zr739       O749   2.409       .  S
Zr739       O750   2.389       .  S
O740        H796   0.981       .  S
O740        H804   0.992       .  S
O741        C761   1.293       .  A
O742        C763   1.264       .  A
O743       Zr753   2.467       .  S
O743        C762   1.282       .  A
O744       Zr752   2.581       .  S
O744        C763   1.309       .  A
O745        C762   1.264       .  A
O746       Zr754   2.359       .  S
O746        C761   1.262       .  A
O747       Zr752   2.372       .  S
O747       Zr754   2.385       .  S
O748       Zr753   2.391       .  S
O748       Zr754   2.394       .  S
O748        H783   0.963       .  S
O749       Zr752   2.401       .  S
O749       Zr769   2.420       .  S
O749        H786   0.966       .  S
O750       Zr753   2.391       .  S
O750       Zr769   2.411       .  S
Zr751       O776   2.441       .  S
Zr751       O770   2.448       .  S
Zr751       O778   2.373       .  S
Zr751       O766   2.373       .  S
Zr751       O757   2.368       .  S
Zr751       O758   2.396       .  S
Zr751       O759   2.380       .  S
Zr751       O760   2.368       .  S
Zr752       O771   2.435       .  S
Zr752       O764   2.433       .  S
Zr752       O765   2.520       .  S
Zr752       O758   2.412       .  S
Zr752       O759   2.424       .  S
Zr753       O755   2.434       .  S
Zr753       O777   2.436       .  S
Zr753       O779   2.437       .  S
Zr753       O757   2.396       .  S
Zr753       O760   2.395       .  S
Zr754       O780   2.425       .  S
Zr754       O781   2.440       .  S
Zr754       O756   2.440       .  S
Zr754       O757   2.375       .  S
Zr754       O758   2.352       .  S
O755        H792   0.990       .  S
O756        H787   0.990       .  S
O756        H801   0.990       .  S
O758        H784   0.965       .  S
O759       Zr769   2.372       .  S
O760       Zr769   2.361       .  S
O760        H785   0.965       .  S
C761       C1449   1.465       .  S
C762       C1435   1.485       .  S
C763       C1463   1.534       .  S
O764        H800   0.990       .  S
O765        C767   1.303       .  A
O766        C767   1.274       .  A
C767       C1407   1.483       .  S
O768       Zr769   2.439       .  S
O768        H797   0.990       .  S
Zr769       O772   2.435       .  S
Zr769       O773   2.438       .  S
Zr769       O774   2.484       .  S
O770        C775   1.289       .  A
O771        H788   0.990       .  S
O771        H803   0.990       .  S
O772        H789   0.989       .  S
O773        H793   0.990       .  S
O773        H802   0.990       .  S
O774        C775   1.292       .  A
C775       C1393   1.537       .  S
O776        H795   0.990       .  S
O776        H799   0.989       .  S
O777        H791   0.990       .  S
O777        H798   0.990       .  S
O778        C782   1.274       .  A
O779        C782   1.285       .  A
O780        H790   0.990       .  S
O781        H794   0.989       .  S
C782       C1421   1.455       .  S
C805       C1379   1.571       .  S
C805        C806   1.490       .  A
C805        C810   1.465       .  A
C806       C1354   1.607       .  S
C806        C807   1.494       .  A
C807       C1323   1.544       .  S
C807        C808   1.470       .  A
C808       C1365   1.575       .  S
C808        C809   1.446       .  A
C809       C1337   1.543       .  S
C809        C810   1.450       .  A
C810       C1309   1.544       .  S
C811        C812   1.437       .  D
C811       C1326   1.605       .  S
C811       C1410   1.548       .  S
C812       C1295   1.496       .  S
C812       C1312   1.601       .  S
C813        C814   1.438       .  D
C813       C2844   1.620       .  S
C813       C1396   1.537       .  S
C814       C1281   1.527       .  S
C814       C1382   1.574       .  S
C815        C816   1.412       .  D
C815       C1351   1.551       .  S
C815       C1424   1.546       .  S
C816       C1267   1.543       .  S
C816       C2816   1.562       .  S
C817        C818   1.452       .  D
C817       C1239   1.615       .  S
C817       C1438   1.510       .  S
C818       C1228   1.568       .  S
C818       C1253   1.604       .  S
C819       C1452   1.535       .  S
C820       C1186   1.544       .  S
C820       C1211   1.566       .  S
C821       C1214   1.627       .  S
C821       C1560   1.487   1_455  A
C821        C826   1.498       .  A
C822       C1256   1.536       .  S
C822       C1559   1.487   1_565  A
C822        C823   1.468       .  A
C823       C1169   1.576       .  S
C824       C1200   1.551       .  S
C824        C825   1.458       .  A
C825       C1242   1.578       .  S
C825       C2302   1.488       .  A
C826       C1155   1.553       .  S
C826       C2301   1.488   1_455  A
C827        C828   1.438       .  D
C827       C1172   1.605       .  S
C827       C1466   1.542       .  S
C828       C1144   1.559       .  S
C828       C1158   1.526       .  S
Zr829       O830   2.409       .  S
Zr829      O2307   2.381       .  S
Zr829      O2308   2.318       .  S
Zr829       O835   2.319       .  S
Zr829      O2313   2.349       .  S
Zr829      O2315   2.369       .  S
Zr829       O840   2.365       .  S
O830        H886   0.990       .  S
O830        H894   0.984       .  S
O831      Zr2305   2.381   1_455  S
O831        C851   1.274       .  A
O832      Zr2305   2.318   1_455  S
O832        C853   1.266       .  A
O833       Zr843   2.589       .  S
O833        C852   1.314       .  A
O834       Zr842   2.529   1_556  S
O834        C853   1.302       .  A
O836       Zr844   2.446       .  S
O836        C851   1.284       .  A
O837      Zr2305   2.349   1_455  S
O837       Zr842   2.388   1_556  S
O837       Zr844   2.379       .  S
O838       Zr843   2.381       .  S
O838      Zr1582   2.376       .  S
O838        H873   0.966       .  S
O839      Zr2305   2.369       .  S
O839       Zr842   2.378   1_656  S
O839      Zr2335   2.379   1_556  S
O839        H876   0.964   1_655  S
O840       Zr859   2.386   1_556  S
Zr841      O2336   2.451       .  S
Zr841      O1606   2.407       .  S
Zr841       O856   2.405   1_655  S
Zr841      O1585   2.396       .  S
Zr841       O848   2.392   1_655  S
Zr841       O849   2.369   1_655  S
Zr841      O2326   2.395       .  S
Zr842       O861   2.435       .  S
Zr842       O854   2.435   1_554  S
Zr842       O855   2.490       .  S
Zr842       O848   2.405       .  S
Zr842       O849   2.407       .  S
Zr843       O845   2.434   1_556  S
Zr843       O867   2.434       .  S
Zr843       O869   2.517   1_556  S
Zr843       O847   2.427   1_556  S
Zr844       O846   2.437       .  S
Zr844      O1576   2.376   1_455  S
Zr844      O1585   2.397   1_456  S
Zr844       O848   2.403   1_556  S
O845        H882   0.990   1_554  S
O846        H877   0.990       .  S
O846        H891   0.990       .  S
O847      Zr1579   2.396       .  S
O847      Zr1582   2.397   1_554  S
O848        H874   0.965       .  S
O849      Zr2335   2.397   1_455  S
O850      Zr2317   2.395       .  S
O850       Zr859   2.389       .  S
O850        H875   0.965       .  S
C851       C1127   1.510       .  S
C852       C1102   1.519       .  S
C853       C1116   1.483       .  S
O854        H890   0.990       .  S
O855        C857   1.294       .  A
O856        C857   1.279       .  A
C857       C1298   1.491       .  S
O858       Zr859   2.441   1_556  S
O858        H887   0.990   1_556  S
Zr859      O2338   2.439       .  S
Zr859       O863   2.439       .  S
Zr859       O864   2.370       .  S
Zr859      O2315   2.379   1_554  S
Zr859      O2325   2.397       .  S
O860      Zr2317   2.451       .  S
O860        C865   1.289       .  A
O861        H878   0.990       .  S
O861        H893   0.990       .  S
O862      Zr2335   2.439       .  S
O862       H2355   0.990       .  S
O863        H883   0.990       .  S
O863        H892   0.990       .  S
O864        C865   1.267       .  A
C865       C1270   1.497       .  S
O866        H885   0.985       .  S
O867        H881   0.990       .  S
O867        H888   0.990       .  S
O868      Zr1579   2.407       .  S
O868        C872   1.267       .  A
O869        C872   1.294       .  A
O870        H880   0.990       .  S
O871        H884   0.990       .  S
C872       C1284   1.503       .  S
H879       O2338   0.990       .  S
Zr895       O896   2.424       .  S
Zr895       O897   2.442       .  S
Zr895       O898   2.296       .  S
Zr895       O901   2.314       .  S
Zr895       O903   2.348       .  S
Zr895       O904   2.353       .  S
Zr895       O905   2.392       .  S
Zr895       O906   2.359       .  S
O896        H952   0.988       .  S
O896        H960   0.989       .  S
O897        C917   1.287       .  A
O898        C919   1.245       .  A
O899       Zr909   2.602       .  S
O899        C918   1.318       .  A
O900       Zr908   2.571       .  S
O900        C919   1.303       .  A
O901        C918   1.261       .  A
O902       Zr910   2.448       .  S
O902        C917   1.283       .  A
O903       Zr908   2.404       .  S
O903       Zr910   2.394       .  S
O904       Zr909   2.376       .  S
O904       Zr910   2.364       .  S
O904        H939   0.966       .  S
O905       Zr908   2.366       .  S
O905       Zr925   2.349       .  S
O905        H942   0.967       .  S
O906       Zr909   2.364       .  S
O906       Zr925   2.386       .  S
Zr907       O932   2.450       .  S
Zr907       O926   2.471       .  S
Zr907       O934   2.364       .  S
Zr907       O922   2.371       .  S
Zr907       O913   2.401       .  S
Zr907       O914   2.435       .  S
Zr907       O915   2.382       .  S
Zr907       O916   2.374       .  S
Zr908       O927   2.438   1_455  S
Zr908      O2396   2.434   1_455  S
Zr908       O921   2.496   1_455  S
Zr908       O914   2.427       .  S
Zr908       O915   2.431       .  S
Zr909       O911   2.433       .  S
Zr909       O933   2.434       .  S
Zr909       O935   2.548       .  S
Zr909       O913   2.419       .  S
Zr909       O916   2.400       .  S
Zr910       O936   2.433       .  S
Zr910       O937   2.439       .  S
Zr910       O912   2.437       .  S
Zr910       O913   2.417       .  S
Zr910       O914   2.381       .  S
O911        H948   0.990       .  S
O912        H943   0.990       .  S
O912        H957   0.990   1_455  S
O914        H940   0.966       .  S
O915       Zr925   2.381       .  S
O916       Zr925   2.371       .  S
O916        H941   0.962       .  S
C917       C1071   1.516       .  S
C918       C1057   1.514       .  S
C919       C1085   1.511       .  S
O920      Zr2384   2.434       .  S
O920        H956   0.990       .  S
O921        C923   1.290       .  A
O922        C923   1.253   1_455  A
C923       C1225   1.487       .  S
O924       Zr925   2.441       .  S
O924        H953   0.990   1_565  S
Zr925       O928   2.438       .  S
Zr925       O929   2.440       .  S
Zr925       O930   2.351       .  S
O926        C931   1.292       .  A
O927        H944   0.990       .  S
O927        H959   0.990       .  S
O928        H945   0.990       .  S
O929        H949   0.990       .  S
O929        H958   0.990       .  S
O930        C931   1.267       .  A
C931       C1183   1.476       .  S
O932        H951   0.990       .  S
O932        H955   0.987       .  S
O933        H947   0.990       .  S
O933        H954   0.990       .  S
O934        C938   1.273       .  A
O935        C938   1.307       .  A
O936        H946   0.990       .  S
O937        H950   0.990       .  S
C938       C1141   1.502       .  S
C961        C962   1.428       .  D
C961       C1043   1.590       .  S
C961       C1099   1.500       .  S
C962       C1060   1.520       .  S
C963        C987   1.600       .  S
C963        C964   1.473       .  A
C963        C968   1.454       .  A
C964       C1046   1.528       .  S
C964        C965   1.486       .  A
C965       C1018   1.598       .  S
C965        C966   1.481       .  A
C966        C973   1.594       .  S
C966        C967   1.474       .  A
C967       C1029   1.537       .  S
C967        C968   1.471       .  A
C968       C1001   1.561       .  S
C969        C970   1.432       .  D
C969        C990   1.574       .  S
C969       C1113   1.546       .  S
C970       C2452   1.595       .  S
C970       C1074   1.545       .  S
C971        C972   1.408       .  D
C971       C1130   1.509       .  S
C972       C2491   1.557   1_455  S
C972       C1088   1.529       .  S
C973        C974   1.433       .  A
C973        C978   1.433       .  A
C974        C975   1.437       .  A
C974        C979   1.441       .  S
C975        C976   1.428       .  A
C975        C982   1.452       .  S
C976        C977   1.435       .  A
C976       C2446   1.595       .  S
C977        C978   1.449       .  A
C977        C980   1.449       .  S
C978        C981   1.440       .  S
C979        N986   1.158       .  T
C980       N2461   1.158       .  T
C981        N983   1.154       .  T
C982        N984   1.157       .  T
N985       C2456   1.158       .  T
C987        C988   1.427       .  A
C987        C992   1.406       .  A
C988        C989   1.453       .  A
C988        C993   1.445       .  S
C989        C990   1.446       .  A
C989        C996   1.442       .  S
C990        C991   1.420       .  A
C991        C992   1.415       .  A
C991        C994   1.427       .  S
C992        C995   1.452       .  S
C993       N1000   1.157       .  T
C994        N999   1.151       .  T
C995        N997   1.158       .  T
C996        N998   1.155       .  T
C1001      C1002   1.423       .  A
C1001      C1006   1.419       .  A
C1002      C1003   1.441       .  A
C1002      C1007   1.444       .  S
C1003      C1004   1.428       .  A
C1003      C1010   1.447       .  S
C1004      C1005   1.430       .  A
C1005      C1006   1.427       .  A
C1005      C1008   1.448       .  S
C1006      C1009   1.443       .  S
C1007      N1014   1.155       .  T
C1009      N1011   1.157       .  T
C1010      N1012   1.157       .  T
C1015      C1016   1.418       .  A
C1015      C1020   1.395       .  A
C1015      C2448   1.557       .  S
C1016      C1017   1.441       .  A
C1016      C1021   1.417       .  S
C1017      C1018   1.418       .  A
C1017      C1024   1.434       .  S
C1018      C1019   1.422       .  A
C1019      C1020   1.410       .  A
C1019      C1022   1.447       .  S
C1020      C1023   1.424       .  S
C1021      N2504   1.151       .  T
C1022      N1027   1.157       .  T
C1023      N1025   1.154       .  T
C1024      N1026   1.156       .  T
N1028      C2497   1.151       .  T
C1029      C1030   1.404       .  A
C1029      C1034   1.402       .  A
C1030      C1031   1.429       .  A
C1030      C1035   1.446       .  S
C1031      C1032   1.449       .  A
C1031      C1038   1.448       .  S
C1032      C1033   1.451       .  A
C1033      C1034   1.432       .  A
C1033      C1036   1.437       .  S
C1034      C1037   1.446       .  S
C1035      N1042   1.157       .  T
C1037      N1039   1.157       .  T
C1038      N1040   1.158       .  T
C1043      C1044   1.458       .  A
C1043      C1048   1.445       .  A
C1044      C1045   1.420       .  A
C1044      C1049   1.451       .  S
C1045      C1046   1.401       .  A
C1045      C1052   1.455       .  S
C1046      C1047   1.415       .  A
C1047      C1048   1.432       .  A
C1047      C1050   1.449       .  S
C1048      C1051   1.446       .  S
C1049      N1056   1.158       .  T
C1050      N1055   1.155       .  T
C1051      N1053   1.159       .  T
C1052      N1054   1.154       .  T
C1057      C1058   1.427       .  A
C1057      C1062   1.405       .  A
C1058      C1059   1.398       .  A
C1058      C1063   1.437       .  S
C1059      C1060   1.391       .  A
C1059      C1066   1.448       .  S
C1060      C1061   1.422       .  A
C1061      C1062   1.430       .  A
C1061      C1064   1.411       .  S
C1062      C1065   1.444       .  S
C1063      N1070   1.157   1_565  T
C1064      N1069   1.144       .  T
C1065      N1067   1.156       .  T
C1066      N1068   1.157       .  T
C1071      C1072   1.405       .  A
C1071      C1076   1.416       .  A
C1072      C1073   1.404       .  A
C1072      C1077   1.433       .  S
C1073      C1074   1.394       .  A
C1073      C1080   1.431       .  S
C1074      C1075   1.419       .  A
C1075      C1076   1.430       .  A
C1075      C1078   1.418       .  S
C1076      C1079   1.449       .  S
C1077      N1084   1.154       .  T
C1078      N1083   1.148       .  T
C1079      N1081   1.157       .  T
C1080      N1082   1.156       .  T
C1085      C1086   1.405       .  A
C1085      C1090   1.435       .  A
C1086      C1087   1.431       .  A
C1086      C1091   1.446   1_455  S
C1087      C1088   1.429       .  A
C1087      C1094   1.439   1_455  S
C1088      C1089   1.395       .  A
C1089      C1090   1.388       .  A
C1089      C1092   1.444       .  S
C1090      C1093   1.452       .  S
C1091      N1098   1.157       .  T
C1092      N1097   1.157       .  T
C1093      N1095   1.152       .  T
C1094      N1096   1.157       .  T
C1099      C1100   1.396       .  A
C1099      C1104   1.423       .  A
C1100      C1101   1.395       .  A
C1101      C1102   1.424       .  A
C1102      C1103   1.405       .  A
C1103      C1104   1.433       .  A
C1103      C1106   1.443       .  S
C1104      C1107   1.440       .  S
C1105      N1112   1.158       .  T
C1106      N1111   1.157       .  T
C1107      N1109   1.157       .  T
C1108      N1110   1.154       .  T
C1113      C1114   1.419       .  A
C1113      C1118   1.431       .  A
C1114      C1115   1.409       .  A
C1114      C1119   1.435   1_455  S
C1115      C1116   1.411       .  A
C1115      C2598   1.445   1_455  S
C1116      C1117   1.388       .  A
C1117      C1118   1.410       .  A
C1117      C1120   1.448       .  S
C1118      C1121   1.415       .  S
C1119      N2602   1.155       .  T
C1120      N1125   1.157       .  T
C1121      N1123   1.146       .  T
C1122      C2591   1.445       .  S
C1122      N1124   1.157       .  T
N1126      C2595   1.155       .  T
C1127      C1128   1.423       .  A
C1128      C2609   1.445       .  S
C1129      C1130   1.406       .  A
C1129      C1874   1.451   1_565  S
C1130      C1131   1.417       .  A
C1131      C1132   1.414       .  A
C1131      C1134   1.437       .  S
C1132      C1135   1.452       .  S
C1133      C2604   1.445       .  S
C1133      N1140   1.153       .  T
C1134      N1139   1.152       .  T
C1135      N1137   1.157       .  T
C1136      C1867   1.451       .  S
C1136      N1138   1.155       .  T
C1141      C1142   1.411       .  A
C1141      C1146   1.404       .  A
C1142      C1143   1.427       .  A
C1142      C1147   1.430       .  S
C1143      C1144   1.390       .  A
C1143      C1150   1.439       .  S
C1144      C1145   1.437       .  A
C1145      C1146   1.416       .  A
C1145      C1148   1.444       .  S
C1146      C1149   1.454       .  S
C1147      N1154   1.156       .  T
C1148      N1153   1.156       .  T
C1149      N1151   1.157       .  T
C1150      N1152   1.158       .  T
C1155      C1156   1.422       .  A
C1155      C1160   1.429       .  A
C1156      C1157   1.402       .  A
C1156      C1161   1.439       .  S
C1157      C1158   1.394       .  A
C1157      C1164   1.437       .  S
C1158      C1159   1.411       .  A
C1159      C1160   1.435       .  A
C1159      C1162   1.442       .  S
C1160      C1163   1.445       .  S
C1161      N1168   1.158       .  T
C1162      N1167   1.157       .  T
C1163      N1165   1.156       .  T
C1164      N1166   1.156       .  T
C1169      C1170   1.423       .  A
C1169      C1174   1.413       .  A
C1170      C1171   1.443       .  A
C1170      C1175   1.438       .  S
C1171      C1172   1.435       .  A
C1171      C1178   1.444       .  S
C1172      C1173   1.449       .  A
C1173      C1174   1.435       .  A
C1173      C1176   1.447       .  S
C1174      C1177   1.446       .  S
C1175      N1182   1.156       .  T
C1176      N1181   1.158       .  T
C1177      N1179   1.157       .  T
C1178      N1180   1.157       .  T
C1183      C1184   1.396       .  A
C1183      C1188   1.405       .  A
C1184      C1185   1.407       .  A
C1184      C1189   1.449       .  S
C1185      C1186   1.431       .  A
C1185      C1192   1.430       .  S
C1186      C1187   1.419       .  A
C1187      C1188   1.409       .  A
C1187      C1190   1.429   1_565  S
C1188      C1191   1.453       .  S
C1189      N1196   1.157       .  T
C1190      N1195   1.150       .  T
C1191      N1193   1.157       .  T
C1192      N1194   1.158       .  T
C1197      C1198   1.425       .  A
C1198      C1199   1.414       .  A
C1198      C1203   1.448       .  S
C1199      C1206   1.436       .  S
C1200      C1201   1.428       .  A
C1201      C1202   1.439       .  A
C1201      C1204   1.442       .  S
C1202      C1205   1.446       .  S
C1203      N1210   1.156       .  T
C1204      N1209   1.157       .  T
C1205      N1207   1.157       .  T
C1206      N1208   1.155       .  T
C1211      C1216   1.410       .  A
C1212      C1213   1.440       .  A
C1212      C1217   1.435       .  S
C1213      C1214   1.439       .  A
C1213      C1220   1.440       .  S
C1215      C1216   1.431       .  A
C1215      C1218   1.438       .  S
C1216      C1219   1.446       .  S
C1217      N1224   1.152       .  T
C1218      N2699   1.157       .  T
C1219      N1221   1.157       .  T
C1220      N1222   1.156       .  T
N1223      C2694   1.157       .  T
C1225      C1226   1.402   1_655  A
C1225      C1230   1.417       .  A
C1226      C1227   1.419       .  A
C1226      C1231   1.453       .  S
C1227      C2704   1.436       .  A
C1227      C1234   1.431       .  S
C1228      C2703   1.436       .  A
C1228      C1229   1.393       .  A
C1229      C2706   1.408       .  A
C1229      C1232   1.442       .  S
C1230      C2705   1.408   1_655  A
C1230      C1233   1.449       .  S
C1231      N1238   1.157       .  T
C1232      N1237   1.156       .  T
C1233      N2711   1.157       .  T
C1234      N1236   1.153       .  T
N1235      C2709   1.157       .  T
C1239      C1240   1.425       .  A
C1239      C1244   1.457       .  A
C1240      C1241   1.444       .  A
C1240      C1245   1.442       .  S
C1241      C1242   1.425       .  A
C1241      C1248   1.438       .  S
C1242      C1243   1.413       .  A
C1243      C1244   1.438       .  A
C1243      C2722   1.448       .  S
C1244      C2723   1.448       .  S
C1245      N1252   1.157       .  T
C1246      C2719   1.448       .  S
C1246      N1251   1.157       .  T
C1247      C2720   1.448   1_455  S
C1247      N1249   1.158       .  T
C1248      N1250   1.157       .  T
C1253      C1254   1.424       .  A
C1253      C1258   1.416       .  A
C1254      C1255   1.427       .  A
C1254      C1259   1.447       .  S
C1255      C1256   1.415       .  A
C1255      C1262   1.447       .  S
C1256      C1257   1.421       .  A
C1257      C1258   1.424       .  A
C1257      C1260   1.446       .  S
C1258      C1261   1.428       .  S
C1259      N1266   1.157       .  T
C1260      N1265   1.158       .  T
C1261      N1263   1.150       .  T
C1262      N1264   1.158       .  T
C1267      C1268   1.433       .  A
C1267      C1272   1.419       .  A
C1268      C1269   1.424       .  A
C1268      C1273   1.431       .  S
C1269      C1270   1.404       .  A
C1269      C1276   1.452       .  S
C1270      C2747   1.390       .  A
C1271      C2746   1.390       .  A
C1271      C2748   1.399       .  A
C1271      C1274   1.435       .  S
C1272      C2747   1.399       .  A
C1272      C2751   1.435       .  S
C1273      N1280   1.152       .  T
C1274      N1279   1.155   1_655  T
C1275      C2748   1.435   1_455  S
C1275      N1277   1.156       .  T
C1276      N1278   1.157       .  T
C1281      C1282   1.387       .  A
C1281      C1286   1.432       .  A
C1282      C1283   1.415       .  A
C1282      C1287   1.440       .  S
C1283      C1284   1.394       .  A
C1283      C1290   1.437       .  S
C1284      C1285   1.408       .  A
C1285      C1286   1.436       .  A
C1285      C1288   1.447       .  S
C1286      C1289   1.434       .  S
C1287      N1294   1.156       .  T
C1288      N1293   1.157       .  T
C1289      N1291   1.153       .  T
C1295      C1296   1.414       .  A
C1295      C1300   1.381       .  A
C1296      C1297   1.432       .  A
C1296      C1301   1.430       .  S
C1297      C1298   1.420       .  A
C1297      C1304   1.444       .  S
C1298      C1299   1.402       .  A
C1299      C1300   1.403       .  A
C1299      C1302   1.446       .  S
C1300      C1303   1.445       .  S
C1301      N1308   1.151       .  T
C1302      N1307   1.158       .  T
C1303      N1305   1.157       .  T
C1304      N1306   1.157       .  T
C1309      C1310   1.409       .  A
C1309      C1314   1.417       .  A
C1310      C1311   1.432       .  A
C1310      C1315   1.454       .  S
C1311      C1312   1.459       .  A
C1311      C1318   1.450       .  S
C1312      C1313   1.423       .  A
C1313      C1314   1.414       .  A
C1313      C1316   1.440       .  S
C1314      C1317   1.439       .  S
C1315      N1322   1.157       .  T
C1316      N1321   1.156       .  T
C1317      N1319   1.157       .  T
C1318      N1320   1.158       .  T
C1323      C1324   1.411       .  A
C1323      C1328   1.413       .  A
C1324      C1325   1.424   1_565  A
C1324      C1329   1.446       .  S
C1326      C1327   1.446       .  A
C1327      C1330   1.439       .  S
C1328      C1331   1.445       .  S
C1329      N1336   1.157       .  T
C1330      N1335   1.157       .  T
C1331      N1333   1.157       .  T
C1332      N1334   1.153       .  T
C1337      C1338   1.416       .  A
C1337      C1342   1.416       .  A
C1338      C1339   1.426       .  A
C1338      C1343   1.443       .  S
C1339      C1340   1.434   1_455  A
C1339      C2822   1.449   1_455  S
C1340      C1341   1.432   1_655  A
C1340      C2292   1.562       .  S
C1341      C1342   1.422       .  A
C1341      C1344   1.446       .  S
C1342      C1345   1.443       .  S
C1343      N1350   1.157       .  T
C1344      N1349   1.158       .  T
C1345      N1347   1.157       .  T
C1346      C2815   1.449       .  S
C1346      N1348   1.157       .  T
C1351      C1356   1.414       .  A
C1352      C1353   1.445   1_545  A
C1352      C1357   1.446       .  S
C1353      C1354   1.434       .  A
C1353      C1360   1.439       .  S
C1354      C1355   1.417   1_565  A
C1355      C1358   1.447       .  S
C1356      C1359   1.439       .  S
C1357      N1364   1.158       .  T
C1358      N1363   1.158       .  T
C1359      N1361   1.156       .  T
C1360      N1362   1.155       .  T
C1365      C1366   1.422       .  A
C1365      C1370   1.408       .  A
C1366      C1367   1.452       .  A
C1366      C1371   1.446       .  S
C1367      C1368   1.445   1_455  A
C1367      C1374   1.439   1_455  S
C1368      C1369   1.455   1_655  A
C1368      C2289   1.620       .  S
C1369      C1370   1.438       .  A
C1369      C2848   1.447   1_455  S
C1370      C1373   1.445       .  S
C1371      N1378   1.157       .  T
C1372      C2845   1.447       .  S
C1372      N1377   1.158       .  T
C1373      N1375   1.156       .  T
C1374      N1376   1.157       .  T
C1379      C1380   1.416       .  A
C1379      C1384   1.431       .  A
C1380      C1381   1.431       .  A
C1380      C1385   1.449       .  S
C1381      C1382   1.431       .  A
C1381      C1388   1.421       .  S
C1382      C1383   1.395       .  A
C1383      C1384   1.425       .  A
C1383      C1386   1.429       .  S
C1384      C1387   1.431       .  S
C1385      N1392   1.156       .  T
C1386      N1391   1.155       .  T
C1387      N1389   1.154       .  T
C1388      N1390   1.151       .  T
C1393      C1394   1.425       .  A
C1393      C1398   1.422       .  A
C1394      C1395   1.422       .  A
C1394      C1399   1.443       .  S
C1395      C1396   1.408       .  A
C1395      C1402   1.449       .  S
C1396      C1397   1.417       .  A
C1397      C1398   1.430       .  A
C1397      C1400   1.441       .  S
C1398      C1401   1.448       .  S
C1399      N1406   1.155       .  T
C1400      N1405   1.153       .  T
C1401      N1403   1.157       .  T
C1402      N1404   1.157       .  T
C1407      C1408   1.400       .  A
C1407      C1412   1.413       .  A
C1408      C1409   1.408       .  A
C1408      C1413   1.457       .  S
C1409      C1410   1.415       .  A
C1409      C1416   1.415       .  S
C1410      C1411   1.432       .  A
C1411      C1412   1.428       .  A
C1411      C1414   1.448       .  S
C1412      C1415   1.446       .  S
C1413      N1420   1.157       .  T
C1414      N1419   1.157       .  T
C1415      N1417   1.157       .  T
C1416      N1418   1.143       .  T
C1421      C1422   1.389       .  A
C1421      C1426   1.394       .  A
C1422      C1423   1.406       .  A
C1422      C1427   1.457       .  S
C1423      C1424   1.443       .  A
C1423      C1430   1.443       .  S
C1424      C1425   1.441       .  A
C1425      C1426   1.414       .  A
C1425      C1428   1.440       .  S
C1426      C1429   1.456       .  S
C1427      N1434   1.157       .  T
C1428      N2909   1.157       .  T
C1429      N1431   1.157       .  T
C1430      N1432   1.157       .  T
N1433      C2904   1.157       .  T
C1435      C1436   1.406       .  A
C1435      C1440   1.402       .  A
C1436      C1437   1.418       .  A
C1436      C1441   1.448       .  S
C1437      C1438   1.417       .  A
C1437      C1444   1.426       .  S
C1438      C1439   1.398       .  A
C1439      C1440   1.403       .  A
C1439      C1442   1.439       .  S
C1440      C1443   1.431       .  S
C1441      N1448   1.157       .  T
C1442      N1447   1.157       .  T
C1443      N1445   1.153       .  T
C1444      N2922   1.149       .  T
N1446      C2920   1.149       .  T
C1449      C1450   1.375       .  A
C1449      C1454   1.406       .  A
C1450      C1451   1.379       .  A
C1450      C1455   1.443       .  S
C1451      C1452   1.429       .  A
C1451      C1458   1.432       .  S
C1452      C1453   1.424       .  A
C1453      C1454   1.416       .  A
C1453      C1456   1.429       .  S
C1454      C1457   1.446       .  S
C1455      N1462   1.156       .  T
C1456      N1461   1.152       .  T
C1457      N1459   1.157       .  T
C1458      N1460   1.153       .  T
C1463      C1464   1.414       .  A
C1463      C1468   1.430       .  A
C1464      C1465   1.439       .  A
C1464      C1469   1.449       .  S
C1465      C1466   1.431       .  A
C1465      C1472   1.441       .  S
C1466      C1467   1.392       .  A
C1467      C1468   1.415       .  A
C1467      C1470   1.457       .  S
C1468      C1471   1.428       .  S
C1469      N1476   1.157       .  T
C1470      N1475   1.158       .  T
C1471      N1473   1.151       .  T
C1472      N1474   1.155       .  T
Zr1477     O1478   2.434       .  S
Zr1477     O1479   2.474       .  S
Zr1477     O1480   2.381       .  S
Zr1477     O1483   2.404       .  S
Zr1477     O1485   2.371       .  S
Zr1477     O1486   2.382       .  S
Zr1477     O1487   2.409       .  S
Zr1477     O1488   2.389       .  S
O1478      H1534   0.981       .  S
O1478      H1542   0.992       .  S
O1479      C1499   1.293       .  A
O1480      C1501   1.264       .  A
O1481     Zr1491   2.467       .  S
O1481      C1500   1.282       .  A
O1482     Zr1490   2.581       .  S
O1482      C1501   1.309       .  A
O1483      C1500   1.264       .  A
O1484     Zr1492   2.359       .  S
O1484      C1499   1.262       .  A
O1485     Zr1490   2.372       .  S
O1485     Zr1492   2.385       .  S
O1486     Zr1491   2.391       .  S
O1486     Zr1492   2.394       .  S
O1486      H1521   0.963       .  S
O1487     Zr1490   2.401       .  S
O1487     Zr1507   2.420       .  S
O1487      H1524   0.966       .  S
O1488     Zr1491   2.391       .  S
O1488     Zr1507   2.411       .  S
Zr1489     O1514   2.441       .  S
Zr1489     O1508   2.448       .  S
Zr1489     O1516   2.373       .  S
Zr1489     O1504   2.373       .  S
Zr1489     O1495   2.368       .  S
Zr1489     O1496   2.396       .  S
Zr1489     O1497   2.380       .  S
Zr1489     O1498   2.368       .  S
Zr1490     O1509   2.435       .  S
Zr1490     O1502   2.433       .  S
Zr1490     O1503   2.520       .  S
Zr1490     O1496   2.412       .  S
Zr1490     O1497   2.424       .  S
Zr1491     O1493   2.434       .  S
Zr1491     O1515   2.436       .  S
Zr1491     O1517   2.437       .  S
Zr1491     O1495   2.396       .  S
Zr1491     O1498   2.395       .  S
Zr1492     O1518   2.425       .  S
Zr1492     O1519   2.440       .  S
Zr1492     O1494   2.440       .  S
Zr1492     O1495   2.375       .  S
Zr1492     O1496   2.352       .  S
O1493      H1530   0.990   1_655  S
O1494      H1525   0.990   1_545  S
O1494      H1539   0.990       .  S
O1496      H1522   0.965       .  S
O1497     Zr1507   2.372       .  S
O1498     Zr1507   2.361       .  S
O1498      H1523   0.965       .  S
C1499      C2187   1.465       .  S
C1500      C2173   1.485       .  S
C1501      C2201   1.534       .  S
O1502      H1538   0.990       .  S
O1503      C1505   1.303       .  A
O1504      C1505   1.274       .  A
C1505      C2145   1.483       .  S
O1506     Zr1507   2.439       .  S
O1506      H1535   0.990       .  S
Zr1507     O1510   2.435       .  S
Zr1507     O1511   2.438       .  S
Zr1507     O1512   2.484       .  S
O1508      C1513   1.289       .  A
O1509      H1526   0.990       .  S
O1509      H1541   0.990       .  S
O1510      H1527   0.989       .  S
O1511      H1531   0.990       .  S
O1511      H1540   0.990       .  S
O1512      C1513   1.292       .  A
C1513      C2131   1.537       .  S
O1514      H1533   0.990       .  S
O1514      H1537   0.989       .  S
O1515      H1529   0.990       .  S
O1515      H1536   0.990       .  S
O1516      C1520   1.274       .  A
O1517      C1520   1.285       .  A
O1518      H1528   0.990       .  S
O1519      H1532   0.989       .  S
C1520      C2159   1.455       .  S
C1543      C2117   1.571       .  S
C1543      C1544   1.490       .  A
C1543      C1548   1.465       .  A
C1544      C2092   1.607       .  S
C1544      C1545   1.494       .  A
C1545      C2061   1.544       .  S
C1545      C1546   1.470       .  A
C1546      C2103   1.575       .  S
C1546      C1547   1.446       .  A
C1547      C2075   1.543       .  S
C1547      C1548   1.450       .  A
C1548      C2047   1.544       .  S
C1549      C1550   1.437       .  D
C1549      C2064   1.605       .  S
C1549      C2148   1.548       .  S
C1550      C2033   1.496       .  S
C1550      C2050   1.601       .  S
C1551      C1552   1.438       .  D
C1551      C2134   1.537       .  S
C1552      C2019   1.527       .  S
C1552      C2120   1.574       .  S
C1553      C1554   1.412       .  D
C1553      C2089   1.551       .  S
C1553      C2162   1.546       .  S
C1554      C2005   1.543       .  S
C1555      C1556   1.452       .  D
C1555      C1977   1.615       .  S
C1555      C2176   1.510       .  S
C1556      C1966   1.568   1_655  S
C1556      C1991   1.604       .  S
C1557      C2296   1.417   1_545  D
C1557      C2673   1.544   1_545  S
C1557      C2190   1.535       .  S
C1558      C2295   1.417       .  D
C1558      C1924   1.544       .  S
C1558      C1949   1.566       .  S
C1559      C1952   1.627   1_545  S
C1559      C1564   1.498       .  A
C1560      C1994   1.536       .  S
C1560      C1561   1.468       .  A
C1561      C1907   1.576       .  S
C1561      C2300   1.454       .  A
C1562      C1938   1.551       .  S
C1562      C2299   1.454   1_545  A
C1562      C1563   1.458       .  A
C1563      C1980   1.578       .  S
C1564      C1893   1.553       .  S
C1565      C1566   1.438       .  D
C1565      C1910   1.605       .  S
C1565      C2204   1.542       .  S
C1566      C1882   1.559       .  S
C1566      C1896   1.526       .  S
Zr1567     O1568   2.409       .  S
Zr1567     O1573   2.319   1_545  S
Zr1567     O2314   2.354   1_545  S
Zr1567     O1578   2.365       .  S
O1568      H1624   0.990       .  S
O1568      H1632   0.984       .  S
O1569      C1589   1.274   1_545  A
O1570      C1591   1.266       .  A
O1571     Zr1581   2.589       .  S
O1571      C1590   1.314       .  A
O1572     Zr1580   2.529   1_556  S
O1572      C1591   1.302       .  A
O1573      C2328   1.264       .  A
O1574     Zr1582   2.446       .  S
O1574      C1589   1.284       .  A
O1575     Zr1580   2.388   1_556  S
O1575     Zr1582   2.379   1_545  S
O1576     Zr2305   2.354       .  S
O1576     Zr1581   2.381       .  S
O1576      H1611   0.966       .  S
O1577     Zr1580   2.378   1_556  S
O1577      H1614   0.964       .  S
O1578     Zr2319   2.372   1_545  S
O1578     Zr1597   2.386   1_556  S
Zr1579     O2342   2.446       .  S
Zr1579     O1594   2.405   1_565  S
Zr1579     O1586   2.392   1_565  S
Zr1579     O1587   2.369   1_565  S
Zr1580     O1599   2.435       .  S
Zr1580     O1592   2.435   1_554  S
Zr1580     O1593   2.490       .  S
Zr1580     O1586   2.405       .  S
Zr1580     O1587   2.407       .  S
Zr1581     O1583   2.434   1_556  S
Zr1581     O1605   2.434       .  S
Zr1581     O1607   2.517   1_556  S
Zr1581     O2316   2.372       .  S
Zr1581     O1585   2.427   1_556  S
Zr1581     O2326   2.424   1_556  S
Zr1582     O2346   2.434       .  S
Zr1582     O2347   2.439   1_556  S
Zr1582     O1584   2.437       .  S
Zr1582     O1586   2.403   1_566  S
O1583      H1620   0.990   1_554  S
O1584      H1615   0.990       .  S
O1584      H1629   0.990   1_565  S
O1586      H1612   0.965       .  S
O1588     Zr2319   2.424   1_554  S
O1588     Zr1597   2.389   1_565  S
O1588      H1613   0.965       .  S
C1589      C1865   1.510       .  S
C1590      O2311   1.264       .  A
C1590      C1840   1.519       .  S
C1591      C1854   1.483       .  S
O1592      H1628   0.990       .  S
O1593      C1595   1.294       .  A
O1594      C1595   1.279       .  A
C1595      C2036   1.491       .  S
O1596     Zr1597   2.441   1_556  S
O1596      H1625   0.990   1_556  S
Zr1597     O1601   2.439       .  S
Zr1597     O1602   2.370       .  S
O1598      C1603   1.289       .  A
O1599      H1616   0.990       .  S
O1599      H1631   0.990       .  S
O1601      H1621   0.990       .  S
O1601      H1630   0.990   1_545  S
O1602      C1603   1.267       .  A
C1603      C2008   1.497       .  S
O1604     Zr2317   2.446       .  S
O1604      H1623   0.985       .  S
O1604      H2365   0.991       .  S
O1605      H1619   0.990       .  S
O1605      H1626   0.990       .  S
O1606      C1610   1.267       .  A
O1607      C1610   1.294       .  A
O1608     Zr2320   2.434       .  S
O1608      H1618   0.990       .  S
O1609     Zr2320   2.439   1_554  S
O1609      H1622   0.990       .  S
C1610      C2022   1.503       .  S
H1627      O2342   0.991       .  S
Zr1633     O1634   2.424       .  S
Zr1633     O1635   2.442       .  S
Zr1633     O1636   2.296       .  S
Zr1633     O1639   2.314       .  S
Zr1633     O1641   2.348       .  S
Zr1633     O1642   2.353       .  S
Zr1633     O1643   2.392       .  S
Zr1633     O1644   2.359       .  S
O1634      H1690   0.988       .  S
O1634      H1698   0.989       .  S
O1635      C1655   1.287       .  A
O1636      C1657   1.245       .  A
O1637     Zr1647   2.602       .  S
O1637      C1656   1.318       .  A
O1638     Zr1646   2.571       .  S
O1638      C1657   1.303       .  A
O1639      C1656   1.261       .  A
O1640     Zr1648   2.448       .  S
O1640      C1655   1.283       .  A
O1641     Zr1646   2.404       .  S
O1641     Zr1648   2.394       .  S
O1642     Zr1647   2.376       .  S
O1642     Zr1648   2.364       .  S
O1642      H1677   0.966       .  S
O1643     Zr1646   2.366       .  S
O1643     Zr1663   2.349       .  S
O1643      H1680   0.967       .  S
O1644     Zr1647   2.364       .  S
O1644     Zr1663   2.386       .  S
Zr1645     O1670   2.450       .  S
Zr1645     O1664   2.471       .  S
Zr1645     O1672   2.364       .  S
Zr1645     O1660   2.371       .  S
Zr1645     O1651   2.401       .  S
Zr1645     O1652   2.435       .  S
Zr1645     O1653   2.382       .  S
Zr1645     O1654   2.374       .  S
Zr1646     O1665   2.438       .  S
Zr1646     O1659   2.496       .  S
Zr1646     O1652   2.427       .  S
Zr1646     O1653   2.431       .  S
Zr1647     O1649   2.433       .  S
Zr1647     O1671   2.434       .  S
Zr1647     O1673   2.548       .  S
Zr1647     O1651   2.419       .  S
Zr1647     O1654   2.400       .  S
Zr1648     O1674   2.433       .  S
Zr1648     O1675   2.439       .  S
Zr1648     O1650   2.437       .  S
Zr1648     O1651   2.417       .  S
Zr1648     O1652   2.381       .  S
O1649      H1686   0.990       .  S
O1650      H1681   0.990       .  S
O1650      H1695   0.990       .  S
O1652      H1678   0.966       .  S
O1653     Zr1663   2.381       .  S
O1654     Zr1663   2.370       .  S
O1654      H1679   0.962       .  S
C1655      C1809   1.516       .  S
C1656      C1795   1.514       .  S
C1657      C1823   1.511       .  S
O1658      H1694   0.990       .  S
O1659      C1661   1.290       .  A
O1660      C1661   1.253       .  A
C1661      C1963   1.487       .  S
O1662     Zr1663   2.441       .  S
O1662      H1691   0.990       .  S
Zr1663     O1666   2.438       .  S
Zr1663     O1667   2.440       .  S
Zr1663     O1668   2.351       .  S
O1664      C1669   1.292       .  A
O1665      H1682   0.990       .  S
O1665      H1697   0.990       .  S
O1666      H1683   0.990       .  S
O1667      H1687   0.990       .  S
O1667      H1696   0.990       .  S
O1668      C1669   1.267       .  A
C1669      C1921   1.476       .  S
O1670      H1689   0.990       .  S
O1670      H1693   0.987       .  S
O1671      H1685   0.990       .  S
O1671      H1692   0.990       .  S
O1672      C1676   1.273       .  A
O1673      C1676   1.307       .  A
O1674      H1684   0.990       .  S
O1675      H1688   0.990       .  S
C1676      C1879   1.502       .  S
C1699      C1700   1.428       .  D
C1699      C1781   1.590       .  S
C1699      C1837   1.500       .  S
C1700      C2508   1.621       .  S
C1700      C1798   1.520       .  S
C1701      C1725   1.600       .  S
C1701      C1702   1.473       .  A
C1701      C1706   1.454       .  A
C1702      C1784   1.528       .  S
C1702      C1703   1.486       .  A
C1703      C1756   1.598       .  S
C1703      C1704   1.481       .  A
C1704      C1711   1.594       .  S
C1704      C1705   1.474       .  A
C1705      C1767   1.537       .  S
C1705      C1706   1.471       .  A
C1706      C1739   1.561       .  S
C1707      C1708   1.432       .  D
C1707      C1728   1.574       .  S
C1707      C1851   1.546       .  S
C1708      C1812   1.545       .  S
C1709      C1710   1.408       .  D
C1709      C2480   1.568       .  S
C1709      C1868   1.509       .  S
C1710      C1826   1.529       .  S
C1711      C1712   1.433       .  A
C1711      C1716   1.433       .  A
C1712      C1713   1.437       .  A
C1712      C1717   1.441       .  S
C1713      C1714   1.428   1_655  A
C1713      C1720   1.452       .  S
C1714      C1715   1.435   1_455  A
C1715      C1716   1.449       .  A
C1715      C1718   1.449   1_655  S
C1716      C1719   1.440       .  S
C1717      N1724   1.158       .  T
C1719      N1721   1.154       .  T
C1720      N1722   1.157       .  T
C1725      C1726   1.427       .  A
C1725      C1730   1.406       .  A
C1726      C1727   1.453       .  A
C1726      C1731   1.445       .  S
C1727      C1728   1.446       .  A
C1727      C1734   1.442       .  S
C1728      C1729   1.420       .  A
C1729      C1730   1.415       .  A
C1729      C1732   1.427       .  S
C1730      C1733   1.452       .  S
C1731      N1738   1.157       .  T
C1732      N1737   1.151       .  T
C1733      N1735   1.158       .  T
C1734      N1736   1.155       .  T
C1739      C1740   1.423       .  A
C1739      C1744   1.419       .  A
C1740      C1741   1.441       .  A
C1740      C1745   1.444       .  S
C1741      C1742   1.428       .  A
C1741      C1748   1.447       .  S
C1742      C1743   1.430       .  A
C1742      C2447   1.568   1_545  S
C1743      C1744   1.427       .  A
C1743      C1746   1.448   1_545  S
C1744      C1747   1.443       .  S
C1745      N1752   1.155       .  T
C1746      N2489   1.157       .  T
C1747      N1749   1.157       .  T
C1748      N1750   1.157       .  T
N1751      C2484   1.157       .  T
C1753      C1754   1.418       .  A
C1753      C1758   1.395       .  A
C1754      C1755   1.441       .  A
C1754      C1759   1.417   1_655  S
C1755      C1756   1.418       .  A
C1755      C1762   1.434       .  S
C1756      C1757   1.422       .  A
C1757      C1758   1.410       .  A
C1757      C1760   1.447       .  S
C1758      C1761   1.424       .  S
C1760      N1765   1.157       .  T
C1761      N1763   1.154       .  T
C1762      N1764   1.156       .  T
C1767      C1768   1.404       .  A
C1767      C1772   1.402       .  A
C1768      C1769   1.429       .  A
C1768      C1773   1.446       .  S
C1769      C1770   1.449       .  A
C1769      C1776   1.448       .  S
C1770      C1771   1.451       .  A
C1770      C2438   1.621   1_545  S
C1771      C1772   1.432       .  A
C1771      C1774   1.437       .  S
C1772      C1775   1.446       .  S
C1773      N1780   1.157       .  T
C1774      N2517   1.157   1_545  T
C1775      N1777   1.157       .  T
C1776      N1778   1.158       .  T
N1779      C2512   1.157       .  T
C1781      C1782   1.458       .  A
C1781      C1786   1.445       .  A
C1782      C1783   1.420       .  A
C1782      C1787   1.451       .  S
C1783      C1784   1.401       .  A
C1783      C1790   1.455       .  S
C1784      C1785   1.415       .  A
C1785      C1786   1.432       .  A
C1785      C1788   1.449       .  S
C1786      C1789   1.446       .  S
C1787      N1794   1.158       .  T
C1788      N1793   1.155       .  T
C1789      N1791   1.159       .  T
C1790      N1792   1.154       .  T
C1795      C1796   1.427       .  A
C1795      C1800   1.405       .  A
C1796      C1797   1.398       .  A
C1796      C1801   1.437       .  S
C1797      C1798   1.391       .  A
C1797      C1804   1.448       .  S
C1798      C1799   1.422       .  A
C1799      C1800   1.430       .  A
C1799      C1802   1.411       .  S
C1800      C1803   1.444       .  S
C1801      N1808   1.157       .  T
C1802      N1807   1.144       .  T
C1803      N1805   1.156       .  T
C1804      N1806   1.157       .  T
C1809      C1810   1.405       .  A
C1809      C1814   1.416       .  A
C1810      C1811   1.404       .  A
C1810      C1815   1.433       .  S
C1811      C1812   1.394       .  A
C1811      C1818   1.431       .  S
C1812      C1813   1.419       .  A
C1813      C1814   1.430       .  A
C1813      C1816   1.418       .  S
C1814      C1817   1.449       .  S
C1815      N1822   1.154       .  T
C1816      N1821   1.148       .  T
C1817      N1819   1.157       .  T
C1818      N1820   1.156       .  T
C1823      C1824   1.405       .  A
C1823      C1828   1.435       .  A
C1824      C1825   1.431       .  A
C1824      C1829   1.446       .  S
C1825      C1826   1.429       .  A
C1825      C1832   1.439       .  S
C1826      C1827   1.395       .  A
C1827      C1828   1.388       .  A
C1827      C1830   1.444       .  S
C1828      C1831   1.452       .  S
C1829      N1836   1.157       .  T
C1830      N1835   1.157       .  T
C1831      N1833   1.152       .  T
C1832      N1834   1.157       .  T
C1837      C1838   1.396       .  A
C1837      C1842   1.423       .  A
C1838      C1839   1.395       .  A
C1838      C2581   1.450       .  S
C1839      C1840   1.424       .  A
C1839      C2584   1.430       .  S
C1840      C1841   1.405       .  A
C1841      C1842   1.433       .  A
C1841      C1844   1.443       .  S
C1842      C1845   1.440       .  S
C1843      C2576   1.450   1_545  S
C1843      N1850   1.158       .  T
C1844      N1849   1.157       .  T
C1845      N1847   1.157       .  T
C1846      C2577   1.430   1_545  S
C1846      N1848   1.154       .  T
C1851      C1852   1.419       .  A
C1851      C1856   1.431       .  A
C1852      C1853   1.409       .  A
C1852      C1857   1.435       .  S
C1853      C1854   1.411       .  A
C1854      C1855   1.388       .  A
C1855      C1856   1.410       .  A
C1855      C1858   1.448       .  S
C1856      C1859   1.415       .  S
C1858      N1863   1.157       .  T
C1859      N1861   1.146       .  T
C1860      N1862   1.157       .  T
C1865      C1866   1.423       .  A
C1865      C2608   1.415       .  A
C1866      C2605   1.406       .  A
C1867      C2604   1.406       .  A
C1867      C1868   1.406       .  A
C1868      C1869   1.417       .  A
C1869      C1870   1.414       .  A
C1869      C1872   1.437       .  S
C1870      C2603   1.415       .  A
C1870      C1873   1.452       .  S
C1871      N1878   1.153   1_455  T
C1872      N1877   1.152       .  T
C1873      N1875   1.157       .  T
C1874      N1876   1.155       .  T
C1879      C1880   1.411       .  A
C1879      C1884   1.404       .  A
C1880      C1881   1.427       .  A
C1880      C1885   1.430       .  S
C1881      C1882   1.390       .  A
C1881      C1888   1.439       .  S
C1882      C1883   1.437       .  A
C1883      C1884   1.416       .  A
C1883      C1886   1.444       .  S
C1884      C1887   1.454       .  S
C1885      N1892   1.156       .  T
C1886      N1891   1.156       .  T
C1887      N1889   1.157       .  T
C1888      N1890   1.158       .  T
C1893      C1894   1.422       .  A
C1893      C1898   1.429       .  A
C1894      C1895   1.402       .  A
C1894      C1899   1.439       .  S
C1895      C1896   1.394       .  A
C1895      C1902   1.437       .  S
C1896      C1897   1.411       .  A
C1897      C1898   1.435       .  A
C1897      C1900   1.442       .  S
C1898      C1901   1.445       .  S
C1899      N1906   1.158       .  T
C1900      N1905   1.157       .  T
C1901      N1903   1.156       .  T
C1902      N1904   1.156       .  T
C1907      C1908   1.423       .  A
C1907      C1912   1.413       .  A
C1908      C1909   1.443       .  A
C1908      C1913   1.438       .  S
C1909      C1910   1.435       .  A
C1909      C1916   1.444       .  S
C1910      C1911   1.449       .  A
C1911      C1912   1.435       .  A
C1911      C1914   1.447       .  S
C1912      C1915   1.446       .  S
C1913      N1920   1.156       .  T
C1914      N1919   1.158       .  T
C1915      N1917   1.157       .  T
C1916      N1918   1.157       .  T
C1921      C1922   1.396       .  A
C1921      C1926   1.405       .  A
C1922      C1923   1.407       .  A
C1922      C1927   1.449       .  S
C1923      C1924   1.431       .  A
C1923      C1930   1.430       .  S
C1924      C1925   1.419       .  A
C1925      C1926   1.409       .  A
C1925      C1928   1.429       .  S
C1926      C1929   1.453       .  S
C1927      N1934   1.157       .  T
C1928      N1933   1.150       .  T
C1929      N1931   1.157       .  T
C1930      N1932   1.158       .  T
C1935      C1936   1.425       .  A
C1935      C2678   1.429       .  A
C1935      C2295   1.544       .  S
C1936      C1937   1.414       .  A
C1936      C1941   1.448       .  S
C1937      C2676   1.409       .  A
C1937      C1944   1.436       .  S
C1938      C2675   1.409   1_545  A
C1938      C1939   1.428       .  A
C1939      C1940   1.439       .  A
C1939      C1942   1.442       .  S
C1940      C2673   1.429   1_545  A
C1940      C1943   1.446       .  S
C1941      N1948   1.156       .  T
C1942      N1947   1.157       .  T
C1943      N1945   1.157       .  T
C1944      N1946   1.155       .  T
C1949      C2688   1.412       .  A
C1949      C1954   1.410       .  A
C1950      C2687   1.412   1_545  A
C1950      C1951   1.440       .  A
C1950      C1955   1.435       .  S
C1951      C1952   1.439   1_545  A
C1951      C1958   1.440       .  S
C1952      C2691   1.430       .  A
C1953      C2690   1.430       .  A
C1953      C1954   1.431       .  A
C1953      C1956   1.438       .  S
C1954      C1957   1.446       .  S
C1955      N1962   1.152       .  T
C1957      N1959   1.157       .  T
C1958      N1960   1.156       .  T
C1963      C1964   1.402       .  A
C1963      C1968   1.417       .  A
C1964      C1965   1.419       .  A
C1964      C1969   1.453       .  S
C1965      C1972   1.431       .  S
C1966      C1967   1.393       .  A
C1967      C1970   1.442       .  S
C1968      C1971   1.449       .  S
C1969      N1976   1.157       .  T
C1970      N1975   1.156       .  T
C1972      N1974   1.153       .  T
C1977      C1978   1.425       .  A
C1977      C1982   1.457       .  A
C1978      C1979   1.444       .  A
C1978      C1983   1.442       .  S
C1979      C1980   1.425       .  A
C1979      C1986   1.438       .  S
C1980      C1981   1.413       .  A
C1981      C1982   1.438       .  A
C1983      N1990   1.157       .  T
C1984      N1989   1.157       .  T
C1985      N1987   1.158       .  T
C1986      N1988   1.157       .  T
C1991      C1992   1.424       .  A
C1991      C1996   1.416       .  A
C1992      C1993   1.427       .  A
C1992      C1997   1.447       .  S
C1993      C1994   1.415       .  A
C1993      C2000   1.447       .  S
C1994      C1995   1.421       .  A
C1995      C1996   1.424       .  A
C1995      C1998   1.446       .  S
C1996      C1999   1.428       .  S
C1997      N2004   1.157       .  T
C1998      N2003   1.158       .  T
C1999      N2001   1.150       .  T
C2000      N2002   1.158       .  T
C2005      C2006   1.433       .  A
C2005      C2010   1.419       .  A
C2006      C2007   1.424       .  A
C2006      C2011   1.431       .  S
C2007      C2008   1.404       .  A
C2007      C2014   1.452       .  S
C2009      C2012   1.435       .  S
C2011      N2018   1.152       .  T
C2012      N2017   1.155       .  T
C2013      N2015   1.156       .  T
C2014      N2016   1.157       .  T
C2019      C2020   1.387       .  A
C2019      C2024   1.432       .  A
C2020      C2021   1.415       .  A
C2020      C2025   1.440       .  S
C2021      C2022   1.394       .  A
C2021      C2028   1.437       .  S
C2022      C2023   1.408       .  A
C2023      C2024   1.436       .  A
C2023      C2026   1.447       .  S
C2024      C2027   1.434       .  S
C2025      N2032   1.156   1_655  T
C2026      N2031   1.157       .  T
C2027      N2029   1.153       .  T
C2028      N2768   1.157       .  T
N2030      C2766   1.157       .  T
C2033      C2034   1.414       .  A
C2033      C2038   1.381       .  A
C2034      C2035   1.432       .  A
C2034      C2039   1.430       .  S
C2035      C2036   1.420       .  A
C2035      C2042   1.444       .  S
C2036      C2037   1.402       .  A
C2037      C2038   1.403       .  A
C2037      C2040   1.446       .  S
C2038      C2041   1.445       .  S
C2039      N2046   1.151       .  T
C2040      N2045   1.158       .  T
C2041      N2043   1.157       .  T
C2042      N2044   1.157       .  T
C2047      C2048   1.409       .  A
C2047      C2052   1.417       .  A
C2048      C2049   1.432       .  A
C2048      C2053   1.454       .  S
C2049      C2050   1.459       .  A
C2049      C2056   1.450       .  S
C2050      C2051   1.423       .  A
C2051      C2052   1.414       .  A
C2051      C2054   1.440       .  S
C2052      C2055   1.439       .  S
C2053      N2060   1.157       .  T
C2054      N2059   1.156       .  T
C2055      N2057   1.157       .  T
C2056      N2058   1.158       .  T
C2061      C2062   1.411       .  A
C2061      C2066   1.413       .  A
C2062      C2063   1.424       .  A
C2062      C2067   1.446       .  S
C2063      C2802   1.439       .  A
C2063      C2808   1.440       .  S
C2064      C2801   1.439       .  A
C2064      C2065   1.446       .  A
C2065      C2804   1.433   1_545  A
C2065      C2068   1.439       .  S
C2066      C2803   1.433       .  A
C2066      C2069   1.445       .  S
C2067      N2074   1.157       .  T
C2068      N2073   1.157       .  T
C2069      N2071   1.157       .  T
C2070      C2801   1.440       .  S
C2070      N2072   1.153       .  T
C2075      C2076   1.416       .  A
C2075      C2080   1.416       .  A
C2076      C2077   1.426       .  A
C2076      C2081   1.443       .  S
C2077      C2078   1.434       .  A
C2078      C2079   1.432       .  A
C2079      C2080   1.422       .  A
C2079      C2082   1.446       .  S
C2080      C2083   1.443       .  S
C2081      N2088   1.157       .  T
C2082      N2087   1.158       .  T
C2083      N2085   1.157       .  T
C2084      N2086   1.157       .  T
C2089      C2828   1.416       .  A
C2089      C2094   1.414       .  A
C2090      C2827   1.416       .  A
C2090      C2091   1.445       .  A
C2090      C2095   1.446       .  S
C2091      C2092   1.434       .  A
C2091      C2098   1.439       .  S
C2092      C2093   1.417       .  A
C2093      C2832   1.413       .  A
C2093      C2096   1.447       .  S
C2094      C2831   1.413       .  A
C2094      C2097   1.439       .  S
C2095      N2102   1.158       .  T
C2096      N2101   1.158       .  T
C2097      N2099   1.156       .  T
C2098      N2100   1.155       .  T
C2103      C2104   1.422       .  A
C2103      C2108   1.408       .  A
C2104      C2105   1.452       .  A
C2104      C2109   1.446       .  S
C2105      C2106   1.445       .  A
C2105      C2112   1.439       .  S
C2106      C2107   1.455       .  A
C2107      C2108   1.438       .  A
C2108      C2111   1.445       .  S
C2109      N2116   1.157       .  T
C2110      N2115   1.158       .  T
C2111      N2113   1.156       .  T
C2112      N2114   1.157       .  T
C2117      C2118   1.416       .  A
C2117      C2122   1.431       .  A
C2118      C2119   1.431       .  A
C2118      C2123   1.449       .  S
C2119      C2120   1.431       .  A
C2119      C2126   1.421       .  S
C2120      C2121   1.395       .  A
C2121      C2122   1.425       .  A
C2121      C2124   1.429       .  S
C2122      C2125   1.431       .  S
C2123      N2130   1.156       .  T
C2124      N2129   1.155       .  T
C2125      N2127   1.154       .  T
C2126      N2128   1.151       .  T
C2131      C2132   1.425       .  A
C2131      C2136   1.422       .  A
C2132      C2133   1.422       .  A
C2132      C2137   1.443       .  S
C2133      C2134   1.408       .  A
C2133      C2140   1.449       .  S
C2134      C2135   1.417       .  A
C2135      C2136   1.430       .  A
C2135      C2138   1.441       .  S
C2136      C2139   1.448       .  S
C2137      N2144   1.155       .  T
C2138      N2143   1.153       .  T
C2139      N2141   1.157       .  T
C2140      N2142   1.157       .  T
C2145      C2146   1.400       .  A
C2145      C2150   1.413       .  A
C2146      C2147   1.408       .  A
C2146      C2151   1.457       .  S
C2147      C2148   1.415       .  A
C2147      C2154   1.415       .  S
C2148      C2149   1.432       .  A
C2149      C2150   1.428       .  A
C2149      C2152   1.448       .  S
C2150      C2153   1.446       .  S
C2151      N2158   1.157       .  T
C2152      N2157   1.157   1_545  T
C2153      N2155   1.157       .  T
C2154      N2156   1.143       .  T
C2159      C2160   1.389       .  A
C2159      C2164   1.394       .  A
C2160      C2161   1.406       .  A
C2160      C2165   1.457       .  S
C2161      C2162   1.443       .  A
C2161      C2168   1.443       .  S
C2162      C2163   1.441       .  A
C2163      C2164   1.414       .  A
C2163      C2166   1.440       .  S
C2164      C2167   1.456       .  S
C2165      N2172   1.157       .  T
C2167      N2169   1.157       .  T
C2168      N2170   1.157       .  T
C2173      C2174   1.406       .  A
C2173      C2178   1.402       .  A
C2174      C2175   1.418   1_655  A
C2174      C2179   1.448   1_655  S
C2175      C2176   1.417   1_455  A
C2175      C2182   1.426       .  S
C2176      C2177   1.398       .  A
C2177      C2178   1.403       .  A
C2177      C2180   1.439       .  S
C2178      C2181   1.431       .  S
C2179      N2186   1.157       .  T
C2180      N2185   1.157       .  T
C2181      N2183   1.153       .  T
C2187      C2188   1.375       .  A
C2187      C2192   1.406       .  A
C2188      C2189   1.379       .  A
C2188      C2193   1.443       .  S
C2189      C2190   1.429       .  A
C2189      C2196   1.432       .  S
C2190      C2191   1.424       .  A
C2191      C2192   1.416       .  A
C2191      C2194   1.429   1_545  S
C2192      C2195   1.446       .  S
C2193      N2200   1.156       .  T
C2194      N2199   1.152       .  T
C2195      N2197   1.157       .  T
C2196      N2198   1.153       .  T
C2201      C2202   1.414       .  A
C2201      C2206   1.430       .  A
C2202      C2203   1.439       .  A
C2202      C2207   1.449       .  S
C2203      C2204   1.431       .  A
C2203      C2210   1.441       .  S
C2204      C2205   1.392       .  A
C2205      C2206   1.415       .  A
C2205      C2208   1.457       .  S
C2206      C2209   1.428       .  S
C2207      N2214   1.157       .  T
C2208      N2213   1.158       .  T
C2209      N2211   1.151       .  T
C2210      N2212   1.155       .  T
Zr2215     O2216   2.434       .  S
Zr2215     O2217   2.474       .  S
Zr2215     O2218   2.381       .  S
Zr2215     O2221   2.404       .  S
Zr2215     O2223   2.371       .  S
Zr2215     O2224   2.382       .  S
Zr2215     O2225   2.409       .  S
Zr2215     O2226   2.389       .  S
O2216      H2272   0.981       .  S
O2216      H2280   0.992       .  S
O2217      C2237   1.293       .  A
O2218      C2239   1.264       .  A
O2219     Zr2229   2.467       .  S
O2219      C2238   1.282       .  A
O2220     Zr2228   2.581       .  S
O2220      C2239   1.309       .  A
O2221      C2238   1.264       .  A
O2222     Zr2230   2.359       .  S
O2222      C2237   1.262       .  A
O2223     Zr2228   2.372       .  S
O2223     Zr2230   2.385       .  S
O2224     Zr2229   2.391       .  S
O2224     Zr2230   2.394       .  S
O2224      H2259   0.963       .  S
O2225     Zr2228   2.401       .  S
O2225     Zr2245   2.420       .  S
O2225      H2262   0.966       .  S
O2226     Zr2229   2.391       .  S
O2226     Zr2245   2.411       .  S
Zr2227     O2252   2.441       .  S
Zr2227     O2246   2.448       .  S
Zr2227     O2254   2.373       .  S
Zr2227     O2242   2.373       .  S
Zr2227     O2233   2.368       .  S
Zr2227     O2234   2.396       .  S
Zr2227     O2235   2.380       .  S
Zr2227     O2236   2.368       .  S
Zr2228     O2247   2.435       .  S
Zr2228     O2240   2.433       .  S
Zr2228     O2241   2.520       .  S
Zr2228     O2234   2.412       .  S
Zr2228     O2235   2.424       .  S
Zr2229     O2231   2.434       .  S
Zr2229     O2253   2.436       .  S
Zr2229     O2255   2.437       .  S
Zr2229     O2233   2.396       .  S
Zr2229     O2236   2.395       .  S
Zr2230     O2256   2.425       .  S
Zr2230     O2257   2.440       .  S
Zr2230     O2232   2.440       .  S
Zr2230     O2233   2.375       .  S
Zr2230     O2234   2.352       .  S
O2231      H2268   0.990   1_655  S
O2232      H2263   0.990       .  S
O2232      H2277   0.990       .  S
O2234      H2260   0.965       .  S
O2235     Zr2245   2.372       .  S
O2236     Zr2245   2.361       .  S
O2236      H2261   0.965       .  S
C2237      C2925   1.465       .  S
C2238      C2911   1.485       .  S
C2239      C2939   1.534       .  S
O2240      H2276   0.990       .  S
O2241      C2243   1.303       .  A
O2242      C2243   1.274       .  A
C2243      C2883   1.483       .  S
O2244     Zr2245   2.439       .  S
O2244      H2273   0.990       .  S
Zr2245     O2248   2.435       .  S
Zr2245     O2249   2.438       .  S
Zr2245     O2250   2.484       .  S
O2246      C2251   1.289       .  A
O2247      H2264   0.990       .  S
O2247      H2279   0.990       .  S
O2248      H2265   0.989       .  S
O2249      H2269   0.990       .  S
O2249      H2278   0.990       .  S
O2250      C2251   1.292       .  A
C2251      C2869   1.537       .  S
O2252      H2271   0.990       .  S
O2252      H2275   0.989       .  S
O2253      H2267   0.990       .  S
O2253      H2274   0.990       .  S
O2254      C2258   1.274       .  A
O2255      C2258   1.285       .  A
O2256      H2266   0.990       .  S
O2257      H2270   0.989       .  S
C2258      C2897   1.455       .  S
C2281      C2855   1.571       .  S
C2281      C2282   1.490       .  A
C2281      C2286   1.465       .  A
C2282      C2830   1.607       .  S
C2282      C2283   1.494       .  A
C2283      C2799   1.544       .  S
C2283      C2284   1.470       .  A
C2284      C2841   1.575       .  S
C2284      C2285   1.446       .  A
C2285      C2813   1.543       .  S
C2285      C2286   1.450       .  A
C2286      C2785   1.544       .  S
C2287      C2288   1.437       .  D
C2287      C2802   1.605       .  S
C2287      C2886   1.548       .  S
C2288      C2771   1.496       .  S
C2288      C2788   1.601       .  S
C2289      C2290   1.438       .  D
C2289      C2872   1.537       .  S
C2290      C2757   1.527       .  S
C2290      C2858   1.574       .  S
C2291      C2292   1.412       .  D
C2291      C2827   1.551       .  S
C2291      C2900   1.546       .  S
C2292      C2743   1.543       .  S
C2293      C2294   1.452       .  D
C2293      C2715   1.615       .  S
C2293      C2914   1.510       .  S
C2294      C2704   1.568   1_655  S
C2294      C2729   1.604       .  S
C2295      C2928   1.535       .  S
C2296      C2662   1.544       .  S
C2296      C2687   1.566       .  S
C2297      C2690   1.627       .  S
C2297      C2302   1.498       .  A
C2298      C2732   1.536       .  S
C2298      C2299   1.468       .  A
C2299      C2645   1.576       .  S
C2300      C2676   1.551       .  S
C2300      C2301   1.458       .  A
C2301      C2718   1.578       .  S
C2302      C2631   1.553       .  S
C2303      C2304   1.438       .  D
C2303      C2648   1.605       .  S
C2303      C2942   1.542       .  S
C2304      C2620   1.559       .  S
C2304      C2634   1.526       .  S
Zr2305     O2306   2.409       .  S
Zr2305     O2311   2.319       .  S
Zr2305     O2316   2.365       .  S
O2306      H2362   0.990       .  S
O2306      H2370   0.984       .  S
O2307      C2327   1.274       .  A
O2308      C2329   1.266       .  A
O2309     Zr2319   2.589       .  S
O2309      C2328   1.314       .  A
O2310     Zr2318   2.529   1_556  S
O2310      C2329   1.302       .  A
O2312     Zr2320   2.446       .  S
O2312      C2327   1.284       .  A
O2313     Zr2318   2.388   1_556  S
O2313     Zr2320   2.379       .  S
O2314     Zr2319   2.381       .  S
O2314      H2349   0.966       .  S
O2315     Zr2318   2.378   1_556  S
O2315      H2352   0.964       .  S
O2316     Zr2335   2.386   1_556  S
Zr2317     O2332   2.405       .  S
Zr2317     O2324   2.392       .  S
Zr2317     O2325   2.369       .  S
Zr2318     O2337   2.435       .  S
Zr2318     O2330   2.435   1_554  S
Zr2318     O2331   2.490       .  S
Zr2318     O2324   2.405       .  S
Zr2318     O2325   2.407       .  S
Zr2319     O2321   2.434   1_556  S
Zr2319     O2343   2.434       .  S
Zr2319     O2345   2.517   1_556  S
Zr2319     O2323   2.427   1_556  S
Zr2320     O2322   2.437       .  S
Zr2320     O2324   2.403   1_556  S
O2321      H2358   0.990   1_554  S
O2322      H2353   0.990       .  S
O2322      H2367   0.990       .  S
O2324      H2350   0.965       .  S
O2326     Zr2335   2.389       .  S
O2326      H2351   0.965       .  S
C2327      C2603   1.510       .  S
C2328      C2578   1.519       .  S
C2329      C2592   1.483       .  S
O2330      H2366   0.990       .  S
O2331      C2333   1.294       .  A
O2332      C2333   1.279       .  A
C2333      C2774   1.491       .  S
O2334     Zr2335   2.441   1_556  S
O2334      H2363   0.990   1_556  S
Zr2335     O2339   2.439       .  S
Zr2335     O2340   2.370       .  S
O2336      C2341   1.289       .  A
O2337      H2354   0.990       .  S
O2337      H2369   0.990       .  S
O2339      H2359   0.990       .  S
O2339      H2368   0.990       .  S
O2340      C2341   1.267       .  A
C2341      C2746   1.497       .  S
O2342      H2361   0.985       .  S
O2343      H2357   0.990       .  S
O2343      H2364   0.990       .  S
O2344      C2348   1.267       .  A
O2345      C2348   1.294       .  A
O2346      H2356   0.990       .  S
O2347      H2360   0.990       .  S
C2348      C2760   1.503       .  S
Zr2371     O2372   2.424       .  S
Zr2371     O2373   2.442       .  S
Zr2371     O2374   2.296       .  S
Zr2371     O2377   2.314       .  S
Zr2371     O2379   2.348       .  S
Zr2371     O2380   2.353       .  S
Zr2371     O2381   2.392       .  S
Zr2371     O2382   2.359       .  S
O2372      H2428   0.988       .  S
O2372      H2436   0.989       .  S
O2373      C2393   1.287       .  A
O2374      C2395   1.245       .  A
O2375     Zr2385   2.602       .  S
O2375      C2394   1.318       .  A
O2376     Zr2384   2.571       .  S
O2376      C2395   1.303       .  A
O2377      C2394   1.261       .  A
O2378     Zr2386   2.448       .  S
O2378      C2393   1.283       .  A
O2379     Zr2384   2.404       .  S
O2379     Zr2386   2.394       .  S
O2380     Zr2385   2.376       .  S
O2380     Zr2386   2.364       .  S
O2380      H2415   0.966       .  S
O2381     Zr2384   2.366       .  S
O2381     Zr2401   2.349       .  S
O2381      H2418   0.967       .  S
O2382     Zr2385   2.364       .  S
O2382     Zr2401   2.386       .  S
Zr2383     O2408   2.450       .  S
Zr2383     O2402   2.471       .  S
Zr2383     O2410   2.364       .  S
Zr2383     O2398   2.371       .  S
Zr2383     O2389   2.401       .  S
Zr2383     O2390   2.435       .  S
Zr2383     O2391   2.382       .  S
Zr2383     O2392   2.374       .  S
Zr2384     O2403   2.438       .  S
Zr2384     O2397   2.496       .  S
Zr2384     O2390   2.427       .  S
Zr2384     O2391   2.431       .  S
Zr2385     O2387   2.433       .  S
Zr2385     O2409   2.434       .  S
Zr2385     O2411   2.548       .  S
Zr2385     O2389   2.419       .  S
Zr2385     O2392   2.400       .  S
Zr2386     O2412   2.433       .  S
Zr2386     O2413   2.439       .  S
Zr2386     O2388   2.437       .  S
Zr2386     O2389   2.417       .  S
Zr2386     O2390   2.381       .  S
O2387      H2424   0.990       .  S
O2388      H2419   0.990       .  S
O2388      H2433   0.990       .  S
O2390      H2416   0.966       .  S
O2391     Zr2401   2.381       .  S
O2392     Zr2401   2.371       .  S
O2392      H2417   0.962       .  S
C2393      C2547   1.516       .  S
C2394      C2533   1.514       .  S
C2395      C2561   1.511       .  S
O2396      H2432   0.990       .  S
O2397      C2399   1.290       .  A
O2398      C2399   1.253       .  A
C2399      C2701   1.487       .  S
O2400     Zr2401   2.441       .  S
O2400      H2429   0.990   1_565  S
Zr2401     O2404   2.438       .  S
Zr2401     O2405   2.440       .  S
Zr2401     O2406   2.351       .  S
O2402      C2407   1.292       .  A
O2403      H2420   0.990       .  S
O2403      H2435   0.990       .  S
O2404      H2421   0.990       .  S
O2405      H2425   0.990       .  S
O2405      H2434   0.990       .  S
O2406      C2407   1.267       .  A
C2407      C2659   1.476       .  S
O2408      H2427   0.990       .  S
O2408      H2431   0.987       .  S
O2409      H2423   0.990       .  S
O2409      H2430   0.990       .  S
O2410      C2414   1.273       .  A
O2411      C2414   1.307       .  A
O2412      H2422   0.990       .  S
O2413      H2426   0.990       .  S
C2414      C2617   1.502       .  S
C2437      C2438   1.428       .  D
C2437      C2519   1.590       .  S
C2437      C2575   1.500       .  S
C2438      C2536   1.520       .  S
C2439      C2463   1.600       .  S
C2439      C2440   1.473       .  A
C2439      C2444   1.454       .  A
C2440      C2522   1.528       .  S
C2440      C2441   1.486       .  A
C2441      C2494   1.598       .  S
C2441      C2442   1.481       .  A
C2442      C2449   1.594       .  S
C2442      C2443   1.474       .  A
C2443      C2505   1.537       .  S
C2443      C2444   1.471       .  A
C2444      C2477   1.561       .  S
C2445      C2446   1.432       .  D
C2445      C2466   1.574       .  S
C2445      C2589   1.546       .  S
C2446      C2550   1.545       .  S
C2447      C2448   1.408       .  D
C2447      C2606   1.509       .  S
C2448      C2564   1.529       .  S
C2449      C2450   1.433       .  A
C2449      C2454   1.433       .  A
C2450      C2451   1.437       .  A
C2450      C2455   1.441       .  S
C2451      C2452   1.428   1_655  A
C2451      C2458   1.452       .  S
C2452      C2453   1.435   1_455  A
C2453      C2454   1.449       .  A
C2453      C2456   1.449   1_655  S
C2454      C2457   1.440       .  S
C2455      N2462   1.158       .  T
C2457      N2459   1.154       .  T
C2458      N2460   1.157       .  T
C2463      C2464   1.427       .  A
C2463      C2468   1.406       .  A
C2464      C2465   1.453       .  A
C2464      C2469   1.445       .  S
C2465      C2466   1.446       .  A
C2465      C2472   1.442       .  S
C2466      C2467   1.420       .  A
C2467      C2468   1.415       .  A
C2467      C2470   1.427       .  S
C2468      C2471   1.452       .  S
C2469      N2476   1.157       .  T
C2470      N2475   1.151       .  T
C2471      N2473   1.158       .  T
C2472      N2474   1.155       .  T
C2477      C2478   1.423       .  A
C2477      C2482   1.419       .  A
C2478      C2479   1.441       .  A
C2478      C2483   1.444       .  S
C2479      C2480   1.428       .  A
C2479      C2486   1.447       .  S
C2480      C2481   1.430       .  A
C2481      C2482   1.427       .  A
C2481      C2484   1.448       .  S
C2482      C2485   1.443       .  S
C2483      N2490   1.155       .  T
C2485      N2487   1.157       .  T
C2486      N2488   1.157       .  T
C2491      C2492   1.418       .  A
C2491      C2496   1.395       .  A
C2492      C2493   1.441       .  A
C2492      C2497   1.417   1_655  S
C2493      C2494   1.418       .  A
C2493      C2500   1.434       .  S
C2494      C2495   1.422       .  A
C2495      C2496   1.410       .  A
C2495      C2498   1.447       .  S
C2496      C2499   1.424       .  S
C2498      N2503   1.157       .  T
C2499      N2501   1.154       .  T
C2500      N2502   1.156       .  T
C2505      C2506   1.404       .  A
C2505      C2510   1.402       .  A
C2506      C2507   1.429       .  A
C2506      C2511   1.446       .  S
C2507      C2508   1.449       .  A
C2507      C2514   1.448       .  S
C2508      C2509   1.451       .  A
C2509      C2510   1.432       .  A
C2509      C2512   1.437       .  S
C2510      C2513   1.446       .  S
C2511      N2518   1.157       .  T
C2513      N2515   1.157       .  T
C2514      N2516   1.158       .  T
C2519      C2520   1.458       .  A
C2519      C2524   1.445       .  A
C2520      C2521   1.420       .  A
C2520      C2525   1.451       .  S
C2521      C2522   1.401       .  A
C2521      C2528   1.455       .  S
C2522      C2523   1.415       .  A
C2523      C2524   1.432       .  A
C2523      C2526   1.449       .  S
C2524      C2527   1.446       .  S
C2525      N2532   1.158       .  T
C2526      N2531   1.155       .  T
C2527      N2529   1.159       .  T
C2528      N2530   1.154       .  T
C2533      C2534   1.427       .  A
C2533      C2538   1.405       .  A
C2534      C2535   1.398       .  A
C2534      C2539   1.437       .  S
C2535      C2536   1.391       .  A
C2535      C2542   1.448       .  S
C2536      C2537   1.422       .  A
C2537      C2538   1.430       .  A
C2537      C2540   1.411       .  S
C2538      C2541   1.444       .  S
C2539      N2546   1.157   1_565  T
C2540      N2545   1.144       .  T
C2541      N2543   1.156       .  T
C2542      N2544   1.157       .  T
C2547      C2548   1.405       .  A
C2547      C2552   1.416       .  A
C2548      C2549   1.404       .  A
C2548      C2553   1.433       .  S
C2549      C2550   1.394       .  A
C2549      C2556   1.431       .  S
C2550      C2551   1.419       .  A
C2551      C2552   1.430       .  A
C2551      C2554   1.418       .  S
C2552      C2555   1.449       .  S
C2553      N2560   1.154       .  T
C2554      N2559   1.148       .  T
C2555      N2557   1.157       .  T
C2556      N2558   1.156       .  T
C2561      C2562   1.405       .  A
C2561      C2566   1.435       .  A
C2562      C2563   1.431       .  A
C2562      C2567   1.446       .  S
C2563      C2564   1.429       .  A
C2563      C2570   1.439       .  S
C2564      C2565   1.395       .  A
C2565      C2566   1.388       .  A
C2565      C2568   1.444       .  S
C2566      C2569   1.452       .  S
C2567      N2574   1.157       .  T
C2568      N2573   1.157       .  T
C2569      N2571   1.152       .  T
C2570      N2572   1.157       .  T
C2575      C2576   1.396       .  A
C2575      C2580   1.423       .  A
C2576      C2577   1.395       .  A
C2577      C2578   1.424       .  A
C2578      C2579   1.405       .  A
C2579      C2580   1.433       .  A
C2579      C2582   1.443       .  S
C2580      C2583   1.440       .  S
C2581      N2588   1.158       .  T
C2582      N2587   1.157       .  T
C2583      N2585   1.157       .  T
C2584      N2586   1.154       .  T
C2589      C2590   1.419       .  A
C2589      C2594   1.431       .  A
C2590      C2591   1.409       .  A
C2590      C2595   1.435       .  S
C2591      C2592   1.411       .  A
C2592      C2593   1.388       .  A
C2593      C2594   1.410       .  A
C2593      C2596   1.448       .  S
C2594      C2597   1.415       .  S
C2596      N2601   1.157       .  T
C2597      N2599   1.146       .  T
C2598      N2600   1.157       .  T
C2603      C2604   1.423       .  A
C2605      C2606   1.406       .  A
C2606      C2607   1.417       .  A
C2607      C2608   1.414       .  A
C2607      C2610   1.437       .  S
C2608      C2611   1.452       .  S
C2609      N2616   1.153   1_455  T
C2610      N2615   1.152       .  T
C2611      N2613   1.157       .  T
C2612      N2614   1.155       .  T
C2617      C2618   1.411       .  A
C2617      C2622   1.404       .  A
C2618      C2619   1.427       .  A
C2618      C2623   1.430       .  S
C2619      C2620   1.390       .  A
C2619      C2626   1.439       .  S
C2620      C2621   1.437       .  A
C2621      C2622   1.416       .  A
C2621      C2624   1.444       .  S
C2622      C2625   1.454       .  S
C2623      N2630   1.156       .  T
C2624      N2629   1.156       .  T
C2625      N2627   1.157       .  T
C2626      N2628   1.158       .  T
C2631      C2632   1.422       .  A
C2631      C2636   1.429       .  A
C2632      C2633   1.402       .  A
C2632      C2637   1.439       .  S
C2633      C2634   1.394       .  A
C2633      C2640   1.437       .  S
C2634      C2635   1.411       .  A
C2635      C2636   1.435       .  A
C2635      C2638   1.442       .  S
C2636      C2639   1.445       .  S
C2637      N2644   1.158       .  T
C2638      N2643   1.157       .  T
C2639      N2641   1.156       .  T
C2640      N2642   1.156       .  T
C2645      C2646   1.423       .  A
C2645      C2650   1.413       .  A
C2646      C2647   1.443       .  A
C2646      C2651   1.438       .  S
C2647      C2648   1.435       .  A
C2647      C2654   1.444       .  S
C2648      C2649   1.449       .  A
C2649      C2650   1.435       .  A
C2649      C2652   1.447       .  S
C2650      C2653   1.446       .  S
C2651      N2658   1.156       .  T
C2652      N2657   1.158       .  T
C2653      N2655   1.157       .  T
C2654      N2656   1.157       .  T
C2659      C2660   1.396       .  A
C2659      C2664   1.405       .  A
C2660      C2661   1.407       .  A
C2660      C2665   1.449       .  S
C2661      C2662   1.431       .  A
C2661      C2668   1.430       .  S
C2662      C2663   1.419       .  A
C2663      C2664   1.409       .  A
C2663      C2666   1.429   1_565  S
C2664      C2667   1.453       .  S
C2665      N2672   1.157       .  T
C2666      N2671   1.150       .  T
C2667      N2669   1.157       .  T
C2668      N2670   1.158       .  T
C2673      C2674   1.425       .  A
C2674      C2675   1.414       .  A
C2674      C2679   1.448       .  S
C2675      C2682   1.436       .  S
C2676      C2677   1.428       .  A
C2677      C2678   1.439       .  A
C2677      C2680   1.442       .  S
C2678      C2681   1.446       .  S
C2679      N2686   1.156       .  T
C2680      N2685   1.157       .  T
C2681      N2683   1.157       .  T
C2682      N2684   1.155       .  T
C2687      C2692   1.410       .  A
C2688      C2689   1.440       .  A
C2688      C2693   1.435       .  S
C2689      C2690   1.439       .  A
C2689      C2696   1.440       .  S
C2691      C2692   1.431       .  A
C2691      C2694   1.438       .  S
C2692      C2695   1.446       .  S
C2693      N2700   1.152       .  T
C2695      N2697   1.157       .  T
C2696      N2698   1.156       .  T
C2701      C2702   1.402       .  A
C2701      C2706   1.417       .  A
C2702      C2703   1.419       .  A
C2702      C2707   1.453       .  S
C2703      C2710   1.431       .  S
C2704      C2705   1.393       .  A
C2705      C2708   1.442       .  S
C2706      C2709   1.449       .  S
C2707      N2714   1.157       .  T
C2708      N2713   1.156       .  T
C2710      N2712   1.153       .  T
C2715      C2716   1.425       .  A
C2715      C2720   1.457       .  A
C2716      C2717   1.444       .  A
C2716      C2721   1.442       .  S
C2717      C2718   1.425       .  A
C2717      C2724   1.438       .  S
C2718      C2719   1.413       .  A
C2719      C2720   1.438       .  A
C2721      N2728   1.157       .  T
C2722      N2727   1.157       .  T
C2723      N2725   1.158       .  T
C2724      N2726   1.157       .  T
C2729      C2730   1.424       .  A
C2729      C2734   1.416       .  A
C2730      C2731   1.427       .  A
C2730      C2735   1.447       .  S
C2731      C2732   1.415       .  A
C2731      C2738   1.447       .  S
C2732      C2733   1.421       .  A
C2733      C2734   1.424       .  A
C2733      C2736   1.446       .  S
C2734      C2737   1.428       .  S
C2735      N2742   1.157       .  T
C2736      N2741   1.158       .  T
C2737      N2739   1.150       .  T
C2738      N2740   1.158       .  T
C2743      C2744   1.433       .  A
C2743      C2748   1.419       .  A
C2744      C2745   1.424       .  A
C2744      C2749   1.431       .  S
C2745      C2746   1.404       .  A
C2745      C2752   1.452       .  S
C2747      C2750   1.435       .  S
C2749      N2756   1.152       .  T
C2750      N2755   1.155       .  T
C2751      N2753   1.156       .  T
C2752      N2754   1.157       .  T
C2757      C2758   1.387       .  A
C2757      C2762   1.432       .  A
C2758      C2759   1.415       .  A
C2758      C2763   1.440       .  S
C2759      C2760   1.394       .  A
C2759      C2766   1.437       .  S
C2760      C2761   1.408       .  A
C2761      C2762   1.436       .  A
C2761      C2764   1.447       .  S
C2762      C2765   1.434       .  S
C2763      N2770   1.156   1_655  T
C2764      N2769   1.157       .  T
C2765      N2767   1.153       .  T
C2771      C2772   1.414       .  A
C2771      C2776   1.381       .  A
C2772      C2773   1.432       .  A
C2772      C2777   1.430       .  S
C2773      C2774   1.420       .  A
C2773      C2780   1.444       .  S
C2774      C2775   1.402       .  A
C2775      C2776   1.403       .  A
C2775      C2778   1.446       .  S
C2776      C2779   1.445       .  S
C2777      N2784   1.151       .  T
C2778      N2783   1.158       .  T
C2779      N2781   1.157       .  T
C2780      N2782   1.157       .  T
C2785      C2786   1.409       .  A
C2785      C2790   1.417       .  A
C2786      C2787   1.432       .  A
C2786      C2791   1.454       .  S
C2787      C2788   1.459       .  A
C2787      C2794   1.450       .  S
C2788      C2789   1.423       .  A
C2789      C2790   1.414       .  A
C2789      C2792   1.440       .  S
C2790      C2793   1.439       .  S
C2791      N2798   1.157       .  T
C2792      N2797   1.156       .  T
C2793      N2795   1.157       .  T
C2794      N2796   1.158       .  T
C2799      C2800   1.411       .  A
C2799      C2804   1.413       .  A
C2800      C2801   1.424   1_565  A
C2800      C2805   1.446       .  S
C2802      C2803   1.446       .  A
C2803      C2806   1.439       .  S
C2804      C2807   1.445       .  S
C2805      N2812   1.157       .  T
C2806      N2811   1.157       .  T
C2807      N2809   1.157       .  T
C2808      N2810   1.153       .  T
C2813      C2814   1.416       .  A
C2813      C2818   1.416       .  A
C2814      C2815   1.426       .  A
C2814      C2819   1.443       .  S
C2815      C2816   1.434       .  A
C2816      C2817   1.432       .  A
C2817      C2818   1.422       .  A
C2817      C2820   1.446       .  S
C2818      C2821   1.443       .  S
C2819      N2826   1.157       .  T
C2820      N2825   1.158       .  T
C2821      N2823   1.157       .  T
C2822      N2824   1.157       .  T
C2827      C2832   1.414       .  A
C2828      C2829   1.445   1_545  A
C2828      C2833   1.446       .  S
C2829      C2830   1.434       .  A
C2829      C2836   1.439       .  S
C2830      C2831   1.417   1_565  A
C2831      C2834   1.447       .  S
C2832      C2835   1.439       .  S
C2833      N2840   1.158       .  T
C2834      N2839   1.158       .  T
C2835      N2837   1.156       .  T
C2836      N2838   1.155       .  T
C2841      C2842   1.422       .  A
C2841      C2846   1.408       .  A
C2842      C2843   1.452       .  A
C2842      C2847   1.446       .  S
C2843      C2844   1.445       .  A
C2843      C2850   1.439       .  S
C2844      C2845   1.455       .  A
C2845      C2846   1.438       .  A
C2846      C2849   1.445       .  S
C2847      N2854   1.157       .  T
C2848      N2853   1.158       .  T
C2849      N2851   1.156       .  T
C2850      N2852   1.157       .  T
C2855      C2856   1.416       .  A
C2855      C2860   1.431       .  A
C2856      C2857   1.431       .  A
C2856      C2861   1.449       .  S
C2857      C2858   1.431       .  A
C2857      C2864   1.421       .  S
C2858      C2859   1.395       .  A
C2859      C2860   1.425       .  A
C2859      C2862   1.429       .  S
C2860      C2863   1.431       .  S
C2861      N2868   1.156       .  T
C2862      N2867   1.155       .  T
C2863      N2865   1.154       .  T
C2864      N2866   1.151       .  T
C2869      C2870   1.425       .  A
C2869      C2874   1.422       .  A
C2870      C2871   1.422       .  A
C2870      C2875   1.443       .  S
C2871      C2872   1.408       .  A
C2871      C2878   1.449       .  S
C2872      C2873   1.417       .  A
C2873      C2874   1.430       .  A
C2873      C2876   1.441       .  S
C2874      C2877   1.448       .  S
C2875      N2882   1.155       .  T
C2876      N2881   1.153       .  T
C2877      N2879   1.157       .  T
C2878      N2880   1.157       .  T
C2883      C2884   1.400       .  A
C2883      C2888   1.413       .  A
C2884      C2885   1.408       .  A
C2884      C2889   1.457       .  S
C2885      C2886   1.415       .  A
C2885      C2892   1.415       .  S
C2886      C2887   1.432       .  A
C2887      C2888   1.428       .  A
C2887      C2890   1.448       .  S
C2888      C2891   1.446       .  S
C2889      N2896   1.157       .  T
C2890      N2895   1.157       .  T
C2891      N2893   1.157       .  T
C2892      N2894   1.143       .  T
C2897      C2898   1.389       .  A
C2897      C2902   1.394       .  A
C2898      C2899   1.406       .  A
C2898      C2903   1.457       .  S
C2899      C2900   1.443       .  A
C2899      C2906   1.443       .  S
C2900      C2901   1.441       .  A
C2901      C2902   1.414       .  A
C2901      C2904   1.440       .  S
C2902      C2905   1.456       .  S
C2903      N2910   1.157       .  T
C2905      N2907   1.157       .  T
C2906      N2908   1.157       .  T
C2911      C2912   1.406       .  A
C2911      C2916   1.402       .  A
C2912      C2913   1.418   1_655  A
C2912      C2917   1.448   1_655  S
C2913      C2914   1.417   1_455  A
C2913      C2920   1.426       .  S
C2914      C2915   1.398       .  A
C2915      C2916   1.403       .  A
C2915      C2918   1.439       .  S
C2916      C2919   1.431       .  S
C2917      N2924   1.157       .  T
C2918      N2923   1.157       .  T
C2919      N2921   1.153       .  T
C2925      C2926   1.375       .  A
C2925      C2930   1.406       .  A
C2926      C2927   1.379       .  A
C2926      C2931   1.443       .  S
C2927      C2928   1.429       .  A
C2927      C2934   1.432       .  S
C2928      C2929   1.424       .  A
C2929      C2930   1.416       .  A
C2929      C2932   1.429       .  S
C2930      C2933   1.446       .  S
C2931      N2938   1.156       .  T
C2932      N2937   1.152       .  T
C2933      N2935   1.157       .  T
C2934      N2936   1.153       .  T
C2939      C2940   1.414       .  A
C2939      C2944   1.430       .  A
C2940      C2941   1.439       .  A
C2940      C2945   1.449       .  S
C2941      C2942   1.431       .  A
C2941      C2948   1.441       .  S
C2942      C2943   1.392       .  A
C2943      C2944   1.415       .  A
C2943      C2946   1.457       .  S
C2944      C2947   1.428       .  S
C2945      N2952   1.157       .  T
C2946      N2951   1.158       .  T
C2947      N2949   1.151       .  T
C2948      N2950   1.155       .  T
