geometry optimzed in LAMMPS
_audit_creation_date              2020-11-30 
_audit_creation_method            'lammps2cif' 
_symmetry_space_group_name_H-M    'P1' 
_symmetry_Int_Tables_number       1 
_symmetry_cell_setting            triclinic 
loop_ 
_symmetry_equiv_pos_as_xyz 
  x,y,z 
_cell_length_a                    51.157469090851684 
_cell_length_b                    51.61174852457322 
_cell_length_c                    31.021078058557293 
_cell_angle_alpha                 89.72901658641804 
_cell_angle_beta                  90.54115533849732 
_cell_angle_gamma                 121.1704241957349 
loop_ 
_atom_site_label 
_atom_site_type_symbol 
_atom_site_fract_x 
_atom_site_fract_y 
_atom_site_fract_z 
_atom_site_charge 
O1          O  0.86431966  0.49319948  0.31294102    -0.57000
C2          C  0.88004559  0.54837314  0.40464757     0.75630
O3          O  0.91946816  0.58511836  0.26193196    -0.58160
C4          C  0.87471953  0.49315251  0.27601538     0.75600
C5          C  0.82908714  0.55064712  0.28057283     0.77990
Cd6        Cd  0.88080104  0.54744024  0.31171082     1.37460
O7          O  0.87772495  0.52633146  0.38358166    -0.57000
O8          O  0.83082500  0.52723725  0.27686783    -0.55810
C9          C  0.94232258  0.59008308  0.28457982     0.77950
O10         O  0.85144761  0.57311992  0.29898884    -0.58180
O11         O  0.88199690  0.56998815  0.38253935    -0.56630
O12         O  0.88728336  0.51802382  0.25582395    -0.56620
O13         O  0.93651165  0.57699340  0.32074789    -0.55790
O14         O  0.85821923  0.48980431  0.68363275    -0.57000
C15         C  0.88007465  0.54895270  0.59144379     0.75630
O16         O  0.85183937  0.55755296  0.73829073    -0.58160
C17         C  0.86719186  0.48905095  0.72152676     0.75600
C18         C  0.94181480  0.58468116  0.70701869     0.77990
Cd19       Cd  0.87852253  0.54507953  0.68392899     1.37470
O20         O  0.87432113  0.52519352  0.61158922    -0.57000
O21         O  0.93170366  0.56032094  0.68619901    -0.55810
C22         C  0.82905579  0.55146198  0.71473054     0.77950
O23         O  0.92266019  0.59257177  0.71510364    -0.58180
O24         O  0.88518945  0.57145008  0.61429785    -0.56630
O25         O  0.87914851  0.51356603  0.74242566    -0.56620
O26         O  0.82953408  0.54321278  0.67662952    -0.55790
O27         O  0.47663997  0.13613494  0.11069138    -0.57000
C28         C  0.51343399  0.13364696  0.21533289     0.75630
O29         O  0.43309570  0.14721146  0.22706302    -0.58160
C30         C  0.45164731  0.12344349  0.09010414     0.75600
C31         C  0.41944198  0.06206504  0.21535571     0.77990
Cd32       Cd  0.45593205  0.12335284  0.18310544     1.37460
O33         O  0.50601400  0.12832129  0.17585035    -0.57000
O34         O  0.44821595  0.07681902  0.21387427    -0.55810
C35         C  0.45168450  0.17392126  0.21437741     0.77950
O36         O  0.40622508  0.07539609  0.20074528    -0.58180
O37         O  0.49478832  0.13575663  0.23952134    -0.56630
O38         O  0.42772137  0.10970595  0.11267704    -0.56620
O39         O  0.47134556  0.17661064  0.18762177    -0.55790
O40         O  0.47591281  0.13833886  0.88389153    -0.57000
C41         C  0.51460279  0.13380452  0.78226491     0.75630
O42         O  0.40849783  0.07840924  0.78022020    -0.58160
C43         C  0.45063929  0.12411114  0.90327611     0.75600
C44         C  0.45105171  0.17243904  0.77834938     0.77990
Cd45       Cd  0.45639475  0.12288792  0.81119781     1.37460
O46         O  0.50604371  0.12739494  0.82092208    -0.57000
O47         O  0.46114412  0.17249766  0.81569216    -0.55810
C48         C  0.41831842  0.06045677  0.78468019     0.77950
O49         O  0.44234832  0.14878604  0.75612169    -0.58180
O50         O  0.49698736  0.13725534  0.75716570    -0.56630
O51         O  0.42708083  0.10921030  0.87967669    -0.56620
O52         O  0.44425574  0.07142699  0.80232112    -0.55790
O53         O  0.47119695  0.34886548  0.61071767    -0.57000
C54         C  0.51552138  0.38134392  0.71256161     0.75630
O55         O  0.40679311  0.32596684  0.71587168    -0.58160
C56         C  0.44805463  0.32713329  0.59259464     0.75600
C57         C  0.45279378  0.27924564  0.71635819     0.77990
Cd58       Cd  0.45591924  0.33324060  0.68471021     1.37470
O59         O  0.50483967  0.38029788  0.67532616    -0.57000
O60         O  0.46121728  0.28874714  0.67833758    -0.55810
C61         C  0.41597096  0.35389888  0.71345889     0.77950
O62         O  0.44558726  0.29465575  0.73966092    -0.58180
O63         O  0.49967212  0.35868583  0.73657368    -0.56630
O64         O  0.42797020  0.30716425  0.61705812    -0.56620
O65         O  0.44216360  0.37050188  0.69783915    -0.55790
O66         O  0.51052575  0.37153715  0.32096116    -0.57000
C67         C  0.44930717  0.32890464  0.40678492     0.75630
O68         O  0.40554125  0.32485344  0.28450621    -0.58160
C69         C  0.51419210  0.37888573  0.28137936     0.75600
C70         C  0.45149714  0.27871355  0.27969859     0.77990
Cd71       Cd  0.45549813  0.33261726  0.31367143     1.37460
O72         O  0.46304495  0.35372302  0.38666857    -0.57000
O73         O  0.47666994  0.30329128  0.28465743    -0.55810
C74         C  0.41646309  0.35291168  0.27883197     0.77950
O75         O  0.42768421  0.27885707  0.29003869    -0.58180
O76         O  0.43870747  0.30535056  0.38390895    -0.56630
O77         O  0.49122475  0.36357147  0.25695703    -0.56620
O78         O  0.44381123  0.37017033  0.29040323    -0.55790
O79         O  0.62557537  0.49225757  0.17448141    -0.57000
C80         C  0.67170901  0.55523298  0.09102443     0.75630
O81         O  0.67356820  0.59498041  0.20908223    -0.58160
C82         C  0.62092533  0.48632077  0.21432068     0.75600
C83         C  0.72192327  0.54904881  0.21497149     0.77990
Cd84       Cd  0.66704621  0.54557126  0.18336550     1.37460
O85         O  0.64711821  0.53656919  0.10953773    -0.57000
O86         O  0.70486424  0.53030379  0.18644192    -0.55810
C87         C  0.64521119  0.58350744  0.21512052     0.77950
O88         O  0.71358849  0.56661932  0.22923254    -0.58180
O89         O  0.69481699  0.56998488  0.11525548    -0.56630
O90         O  0.63890622  0.50725919  0.23980149    -0.56620
O91         O  0.62843575  0.55581842  0.20600308    -0.55790
O92         O  0.64927067  0.53503927  0.88653224    -0.57000
C93         C  0.62311780  0.48877169  0.77749873     0.75630
O94         O  0.67493057  0.59467224  0.78342399    -0.58160
C95         C  0.67324797  0.55526519  0.90525453     0.75600
C96         C  0.72379861  0.55120060  0.78094398     0.77990
Cd97       Cd  0.66890437  0.54639027  0.81310767     1.37460
O98         O  0.63383200  0.49034351  0.81502480    -0.57000
O99         O  0.71012534  0.53566420  0.81382912    -0.55810
C100        C  0.64647683  0.58465352  0.78485561     0.77950
O101        O  0.71219921  0.56497984  0.76269481    -0.58180
O102        O  0.63490802  0.51323416  0.75642775    -0.56630
O103        O  0.69574323  0.57193672  0.88131082    -0.56620
O104        O  0.63006873  0.55867393  0.80109963    -0.55790
O105        O  0.36049783  0.88477372  0.38377774    -0.57000
C106        C  0.38579823  0.86689393  0.27441112     0.75630
O107        O  0.29074857  0.85241600  0.27224432    -0.58160
C108        C  0.33723209  0.88126567  0.40297946     0.75600
C109        C  0.36259936  0.93993528  0.28275400     0.77990
Cd110      Cd  0.34083918  0.87839189  0.31031072     1.37470
O111        O  0.37813908  0.86177856  0.31360214    -0.57000
O112        O  0.37723256  0.93252298  0.30779613    -0.55810
C113        C  0.28506515  0.82588902  0.28023700     0.77950
O114        O  0.33649797  0.91860790  0.27077809    -0.58180
O115        O  0.37202473  0.87661113  0.25161942    -0.56630
O116        O  0.31476145  0.87608523  0.37922018    -0.56620
O117        O  0.30487301  0.82407567  0.30253100    -0.55790
O118        O  0.37723294  0.86418436  0.67556120    -0.57000
C119        C  0.33555913  0.88123937  0.58957815     0.75630
O120        O  0.28659948  0.85171254  0.71483980    -0.58160
C121        C  0.38283478  0.86491844  0.71559990     0.75600
C122        C  0.36065417  0.93812729  0.71799406     0.77990
Cd123      Cd  0.33839632  0.87824179  0.68276174     1.37470
O124        O  0.36017642  0.89023876  0.61022189    -0.57000
O125        O  0.37729944  0.92741964  0.70984677    -0.55810
C126        C  0.28407435  0.82595711  0.71543755     0.77950
O127        O  0.33254897  0.92122429  0.70891881    -0.58180
O128        O  0.31176876  0.87103808  0.61212258    -0.56630
O129        O  0.36686782  0.87060549  0.74036021    -0.56620
O130        O  0.30630214  0.82470350  0.70058543    -0.55790
O131        O  0.12642313  0.64568994  0.11277995    -0.57000
C132        C  0.12890438  0.61282247  0.21345987     0.75630
O133        O  0.15285889  0.71816144  0.20307324    -0.58160
C134        C  0.12658607  0.66686860  0.09193774     0.75600
C135        C  0.06492221  0.64744125  0.21816346     0.77990
Cd136      Cd  0.12417163  0.66344527  0.18471028     1.37470
O137        O  0.11408696  0.61166251  0.17991443    -0.57000
O138        O  0.06993707  0.64762979  0.17841162    -0.55810
C139        C  0.17730214  0.71899315  0.21336059     0.77950
O140        O  0.08785817  0.65632557  0.24274193    -0.58180
O141        O  0.14203871  0.63773665  0.23361274    -0.56630
O142        O  0.12730512  0.68773780  0.11415067    -0.56620
O143        O  0.17712625  0.69453631  0.20941598    -0.55790
O144        O  0.13735245  0.62361618  0.82101579    -0.57000
C145        C  0.12300548  0.66619038  0.90530435     0.75630
O146        O  0.14974753  0.71274521  0.77416971    -0.58160
C147        C  0.13879533  0.61946785  0.78109711     0.75600
C148        C  0.06462286  0.64123491  0.77676999     0.77990
Cd149      Cd  0.12514144  0.66348173  0.81229708     1.37460
O150        O  0.11535556  0.64204689  0.88514528    -0.57000
O151        O  0.07707101  0.62568753  0.78003728    -0.55810
C152        C  0.17677376  0.71850610  0.78003779     0.77950
O153        O  0.07995202  0.66798815  0.79129499    -0.58180
O154        O  0.13089843  0.68932679  0.88227731    -0.56630
O155        O  0.13541484  0.63685958  0.75573299    -0.56620
O156        O  0.17956243  0.69892551  0.80082034    -0.55790
O157        O  0.62318158  0.12999181  0.31924950    -0.57000
C158        C  0.67280604  0.12629845  0.40492290     0.75630
O159        O  0.66954923  0.08199834  0.27183629    -0.58160
C160        C  0.61829504  0.13024936  0.27917087     0.75600
C161        C  0.72199788  0.17335020  0.27835617     0.77990
Cd162      Cd  0.66656856  0.12244131  0.31204259     1.37460
O163        O  0.66049434  0.13823882  0.38378536    -0.57000
O164        O  0.69647054  0.17161362  0.27714478    -0.55810
C165        C  0.64308180  0.06107006  0.28262531     0.77950
O166        O  0.72223704  0.15113332  0.29535639    -0.58180
O167        O  0.68312389  0.11301993  0.38291029    -0.56630
O168        O  0.63598710  0.12706498  0.25439559    -0.56620
O169        O  0.62886839  0.06857525  0.30779005    -0.55790
O170        O  0.62540636  0.13427204  0.67665257    -0.57000
C171        C  0.67043625  0.12495573  0.59160755     0.75630
O172        O  0.72134750  0.14974507  0.70439167    -0.58160
C173        C  0.61733793  0.12924918  0.71571836     0.75600
C174        C  0.64586624  0.06158501  0.71531780     0.77990
Cd175      Cd  0.66601383  0.12204460  0.68419930     1.37460
O176        O  0.65092248  0.12818357  0.61175914    -0.57000
O177        O  0.64256684  0.06639930  0.67619450    -0.55810
C178        C  0.72215897  0.17372187  0.71541829     0.77950
O179        O  0.65970901  0.08471109  0.73914910    -0.58180
O180        O  0.68804205  0.11996385  0.61445376    -0.56630
O181        O  0.63158546  0.12061974  0.73956466    -0.56620
O182        O  0.69750484  0.17352399  0.71120162    -0.55790
O183        O  0.86248711  0.33935254  0.10997804    -0.57000
C184        C  0.87500384  0.38808533  0.21167539     0.75630
O185        O  0.85529556  0.28607013  0.21592920    -0.58160
C186        C  0.87635126  0.32830420  0.09109110     0.75600
C187        C  0.93976786  0.35644136  0.21792655     0.77990
Cd188      Cd  0.87995804  0.33754527  0.18307182     1.37470
O189        O  0.88637657  0.38837613  0.17547192    -0.57000
O190        O  0.93539157  0.35783274  0.17799925    -0.55810
C191        C  0.82835835  0.28090727  0.21159146     0.77950
O192        O  0.91629605  0.34517733  0.24140688    -0.58180
O193        O  0.86587781  0.36444917  0.23399553    -0.56630
O194        O  0.89205691  0.32132497  0.11482966    -0.56620
O195        O  0.82587405  0.30154871  0.19369811    -0.55790
O196        O  0.86268003  0.33838830  0.88578453    -0.57000
C197        C  0.87400148  0.38741679  0.78592820     0.75630
O198        O  0.91684556  0.34334471  0.75617653    -0.58160
C199        C  0.87710811  0.32793254  0.90518928     0.75600
C200        C  0.82885946  0.28109165  0.78338854     0.77990
Cd201      Cd  0.88048239  0.33742434  0.81317179     1.37460
O202        O  0.88642054  0.38773113  0.82152812    -0.57000
O203        O  0.82661169  0.30213126  0.79994440    -0.55810
C204        C  0.94052350  0.35701602  0.77975000     0.77950
O205        O  0.85564591  0.28565067  0.78109692    -0.58180
O206        O  0.86494287  0.36411744  0.76289060    -0.56630
O207        O  0.89287919  0.32115126  0.88186520    -0.56620
O208        O  0.93617600  0.36077383  0.81868674    -0.55790
O209        O  0.53972388  0.88855328  0.10834793    -0.57000
C210        C  0.48946427  0.86265911  0.21143150     0.75630
O211        O  0.57438094  0.85468294  0.22158628    -0.58160
C212        C  0.55573174  0.88011750  0.08921924     0.75600
C213        C  0.58519707  0.93869772  0.21577106     0.77990
Cd214      Cd  0.54878008  0.87763829  0.18204863     1.37460
O215        O  0.49570826  0.86468262  0.17165597    -0.57000
O216        O  0.55668793  0.92465943  0.21017867    -0.55810
C217        C  0.55279958  0.82760244  0.21561861     0.77950
O218        O  0.59828929  0.92444478  0.20555101    -0.58180
O219        O  0.50995602  0.86522158  0.23736512    -0.56630
O220        O  0.56929667  0.87076413  0.11308699    -0.56620
O221        O  0.52987502  0.82419562  0.19468848    -0.55790
O222        O  0.53587063  0.88485848  0.88334189    -0.57000
C223        C  0.48944801  0.86508820  0.77830757     0.75630
O224        O  0.58305608  0.91616925  0.75733823    -0.58160
C225        C  0.55422380  0.87933112  0.90294917     0.75600
C226        C  0.55243129  0.82686948  0.78204774     0.77990
Cd227      Cd  0.54795173  0.87754146  0.81038570     1.37460
O228        O  0.49362259  0.86171250  0.81771612    -0.57000
O229        O  0.52733297  0.82476429  0.79103178    -0.55810
C230        C  0.58817342  0.93879365  0.77969622     0.77950
O231        O  0.57621663  0.85280662  0.78684042    -0.58180
O232        O  0.51207171  0.87335947  0.75386384    -0.56630
O233        O  0.56976227  0.87219064  0.87969194    -0.56620
O234        O  0.57635317  0.93289037  0.81667679    -0.55790
O235        O  0.53162999  0.66928944  0.38593569    -0.57000
C236        C  0.49260353  0.61769246  0.28035230     0.75630
O237        O  0.57717002  0.72153552  0.28738147    -0.58160
C238        C  0.55605684  0.67604284  0.40575656     0.75600
C239        C  0.58612897  0.64454469  0.28284715     0.77990
Cd240      Cd  0.54930958  0.66782148  0.31320760     1.37470
O241        O  0.49746606  0.62279166  0.32044673    -0.57000
O242        O  0.56365593  0.63032616  0.30775092    -0.55810
C243        C  0.55302105  0.72176522  0.27876164     0.77950
O244        O  0.59337479  0.67133950  0.27303589    -0.58180
O245        O  0.51374963  0.63618968  0.25577368    -0.56630
O246        O  0.57790812  0.67959262  0.38266219    -0.56620
O247        O  0.52818196  0.69742855  0.28589946    -0.55790
O248        O  0.49611732  0.62258846  0.67865529    -0.57000
C249        C  0.55513756  0.67580381  0.59194566     0.75630
O250        O  0.57542797  0.71876602  0.71845347    -0.58160
C251        C  0.49152355  0.61865009  0.71886861     0.75600
C252        C  0.58514244  0.64361150  0.71484818     0.77990
Cd253      Cd  0.54828816  0.66727152  0.68445838     1.37460
O254        O  0.53022984  0.66715109  0.61097589    -0.57000
O255        O  0.56085653  0.62841781  0.69301417    -0.55810
C256        C  0.55209773  0.72134586  0.71778664     0.77950
O257        O  0.59388886  0.67119537  0.72139582    -0.58180
O258        O  0.57748056  0.68073723  0.61571157    -0.56630
O259        O  0.51310168  0.63745554  0.74299425    -0.56620
O260        O  0.52813922  0.69933032  0.70183215    -0.55790
O261        O  0.11979382  0.46796213  0.38586638    -0.57000
C262        C  0.13198437  0.50901726  0.27761836     0.75630
O263        O  0.15007260  0.42800805  0.28206928    -0.58160
C264        C  0.12251895  0.44798345  0.40559132     0.75600
C265        C  0.06328958  0.41250598  0.28424836     0.77990
Cd266      Cd  0.12502166  0.45403906  0.31294886     1.37460
O267        O  0.14501984  0.50933963  0.31267882    -0.57000
O268        O  0.06946045  0.42529647  0.32069464    -0.55810
C269        C  0.17669359  0.45132812  0.28216818     0.77950
O270        O  0.08594752  0.41699461  0.26209555    -0.58180
O271        O  0.11700127  0.48372590  0.25877691    -0.56630
O272        O  0.12727159  0.43069415  0.38244581    -0.56620
O273        O  0.17902203  0.47525583  0.29680721    -0.55790
O274        O  0.11799075  0.46756061  0.61002925    -0.57000
C275        C  0.13821025  0.51478028  0.71492652     0.75630
O276        O  0.08593724  0.42088017  0.73523541    -0.58160
C277        C  0.12177165  0.44784402  0.59183163     0.75600
C278        C  0.17564928  0.45041048  0.71195856     0.77990
Cd279      Cd  0.12508556  0.45631421  0.68369550     1.37470
O280        O  0.13987592  0.51007596  0.67542083    -0.57000
O281        O  0.17831085  0.46801776  0.68157459    -0.55810
C282        C  0.06304915  0.41478808  0.71192948     0.77950
O283        O  0.14943805  0.43489529  0.72850264    -0.58180
O284        O  0.13171730  0.49290210  0.73986692    -0.56630
O285        O  0.12698840  0.43127411  0.61641020    -0.56620
O286        O  0.06891968  0.42629631  0.67468186    -0.55790
O287        O  0.35466011  0.46218660  0.10918445    -0.57000
C288        C  0.38395594  0.51004404  0.21640950     0.75630
O289        O  0.28183931  0.42613352  0.20786970    -0.58160
C290        C  0.32933501  0.44634431  0.09004657     0.75600
C291        C  0.35509090  0.41210482  0.21148691     0.77990
Cd292      Cd  0.33546861  0.45285117  0.18291199     1.37460
O293        O  0.37623885  0.50660918  0.17696738    -0.57000
O294        O  0.36827037  0.43210191  0.18290328    -0.55810
C295        C  0.28143366  0.45010910  0.21488545     0.77950
O296        O  0.33083917  0.40929052  0.22659209    -0.58180
O297        O  0.36840617  0.48737457  0.24056463    -0.56630
O298        O  0.30599041  0.43366326  0.11378314    -0.56620
O299        O  0.30578154  0.47486131  0.20675329    -0.55790
O300        O  0.35553229  0.46181969  0.88567715    -0.57000
C301        C  0.38190439  0.51312298  0.78325281     0.75630
O302        O  0.32856042  0.40296171  0.78941307    -0.58160
C303        C  0.33047894  0.44434075  0.90417040     0.75600
C304        C  0.28083282  0.44949740  0.77871219     0.77990
Cd305      Cd  0.33549047  0.45337649  0.81191656     1.37460
O306        O  0.37860073  0.50602526  0.82281226    -0.57000
O307        O  0.29265163  0.46195555  0.81445843    -0.55810
C308        C  0.35633406  0.41490386  0.77887286     0.77950
O309        O  0.29414944  0.43850225  0.75816567    -0.58180
O310        O  0.36223025  0.49349310  0.75784535    -0.56630
O311        O  0.30723643  0.43029166  0.87992880    -0.56620
O312        O  0.37297673  0.44296287  0.78523774    -0.55790
C313        C  0.32779824  0.44294969  0.04259935    -0.04650
C314        C  0.35374913  0.44734936  0.02090672    -0.32080
C315        C  0.35424783  0.44633498  0.97598309     0.37170
C316        C  0.32868966  0.44135421  0.95162729    -0.05010
C317        C  0.30215338  0.43557718  0.97320569    -0.31980
C318        C  0.30154429  0.43627329  0.01843339     0.37080
H319        H  0.37393563  0.45180950  0.03887534     0.17450
O320        O  0.38005499  0.45060611  0.95618676    -0.59480
H321        H  0.28227445  0.43172060  0.95498309     0.17460
O322        O  0.27593685  0.43233966  0.03842064    -0.59570
H323        H  0.26233054  0.41011601  0.04154402     0.44460
H324        H  0.37639919  0.42995895  0.95176697     0.44410
C325        C  0.20192991  0.44872675  0.72821710    -0.04650
C326        C  0.20451677  0.44493416  0.77255903    -0.32080
C327        C  0.23019647  0.44533587  0.78943639     0.37170
C328        C  0.25321838  0.44832968  0.76163254    -0.05010
C329        C  0.25015188  0.45111489  0.71710759    -0.31980
C330        C  0.22505087  0.45195713  0.70042275     0.37080
H331        H  0.18698218  0.44253083  0.79439626     0.17450
O332        O  0.23217233  0.44195224  0.83301813    -0.59480
H333        H  0.26769327  0.45350497  0.69529958     0.17460
O334        O  0.22291087  0.45511221  0.65682258    -0.59570
H335        H  0.23560161  0.47718880  0.65129144     0.44460
H336        H  0.24030101  0.46244959  0.84534735     0.44410
C337        C  0.20360952  0.45083749  0.26573390    -0.04650
C338        C  0.19973784  0.42448038  0.24634731    -0.32080
C339        C  0.22474002  0.42377693  0.22960341     0.37170
C340        C  0.25431762  0.44969321  0.23216802    -0.05010
C341        C  0.25816228  0.47597352  0.25155645    -0.31980
C342        C  0.23331114  0.47666480  0.26849786     0.37080
H343        H  0.17719533  0.40437762  0.24370817     0.17450
O344        O  0.21987045  0.39776079  0.21034045    -0.59480
H345        H  0.28068030  0.49614037  0.25406030     0.17460
O346        O  0.23844600  0.50290677  0.28734416    -0.59570
H347        H  0.24331554  0.50144569  0.31795674     0.44460
H348        H  0.21606072  0.39986165  0.17947574     0.44410
C349        C  0.12030947  0.44536131  0.45313201    -0.04650
C350        C  0.13486533  0.43277768  0.47624191    -0.32080
C351        C  0.13482424  0.43244324  0.52154141     0.37170
C352        C  0.12015483  0.44492833  0.54428277    -0.05010
C353        C  0.10461683  0.45632168  0.52099605    -0.31980
C354        C  0.10437540  0.45637537  0.47602054     0.37080
H355        H  0.14713151  0.42407959  0.45923285     0.17450
O356        O  0.15069851  0.42156023  0.54309527    -0.59480
H357        H  0.09268380  0.46549310  0.53775350     0.17460
O358        O  0.08860344  0.46751222  0.45478707    -0.59570
H359        H  0.06798950  0.44962601  0.44926796     0.44460
H360        H  0.13623538  0.39942446  0.54547047     0.44410
C361        C  0.46262941  0.59318440  0.73647198    -0.04650
C362        C  0.43790307  0.57567494  0.70849220    -0.32080
C363        C  0.41103363  0.55029913  0.72347148     0.37170
C364        C  0.40832242  0.54196184  0.76735665    -0.05010
C365        C  0.43265390  0.56008711  0.79561723    -0.31980
C366        C  0.45954618  0.58543710  0.78061401     0.37080
H367        H  0.43950993  0.58134250  0.67456506     0.17450
O368        O  0.38765346  0.53378968  0.69476392    -0.59480
H369        H  0.43130856  0.55407067  0.82937208     0.17460
O370        O  0.48316825  0.60152493  0.80913754    -0.59570
H371        H  0.47898791  0.61646503  0.82234202     0.44460
H372        H  0.39310998  0.52019268  0.68015476     0.44410
C373        C  0.46397728  0.59124699  0.26332294    -0.04650
C374        C  0.44105471  0.57168270  0.29208458    -0.32080
C375        C  0.41461380  0.54554228  0.27730739     0.37170
C376        C  0.41044767  0.53863404  0.23292351    -0.05010
C377        C  0.43290047  0.55863804  0.20402713    -0.31980
C378        C  0.45944820  0.58462946  0.21878558     0.37080
H379        H  0.44376624  0.57636375  0.32636775     0.17450
O380        O  0.39279604  0.52718519  0.30652889    -0.59480
H381        H  0.43032400  0.55370693  0.16980906     0.17460
O382        O  0.48123204  0.60274489  0.18937526    -0.59570
H383        H  0.47519879  0.61717606  0.17920529     0.44460
H384        H  0.40011476  0.51430641  0.31898106     0.44410
C385        C  0.55833887  0.67905512  0.45332532    -0.04650
C386        C  0.53653504  0.68253409  0.47543457    -0.32080
C387        C  0.53615302  0.68285678  0.52044263     0.37170
C388        C  0.55753367  0.67917307  0.54447601    -0.05010
C389        C  0.58027615  0.67709759  0.52250330    -0.31980
C390        C  0.58085391  0.67709155  0.47727886     0.37080
H391        H  0.51937674  0.68467413  0.45775662     0.17450
O392        O  0.51441219  0.68635360  0.54056325    -0.59480
H393        H  0.59699306  0.67435429  0.54036137     0.17460
O394        O  0.60237105  0.67331922  0.45701493    -0.59570
H395        H  0.62059714  0.69397944  0.45459385     0.44460
H396        H  0.52428684  0.70843085  0.54575955     0.44410
C397        C  0.55324837  0.80024736  0.76615107    -0.04650
C398        C  0.52576491  0.77452137  0.75296940    -0.32080
C399        C  0.52517136  0.74898203  0.73702808     0.37170
C400        C  0.55241799  0.74840066  0.73455398    -0.05010
C401        C  0.57997052  0.77402481  0.74811528    -0.31980
C402        C  0.58058021  0.79989061  0.76347868     0.37080
H403        H  0.50444421  0.77419294  0.75454984     0.17450
O404        O  0.49758000  0.72451082  0.72471300    -0.59480
H405        H  0.60117240  0.77413041  0.74660036     0.17460
O406        O  0.60787110  0.82430695  0.77677243    -0.59570
H407        H  0.61741900  0.83610586  0.75020534     0.44460
H408        H  0.49437616  0.72875929  0.69452985     0.44410
C409        C  0.55339581  0.74885097  0.26170052    -0.04650
C410        C  0.58026045  0.77750628  0.26374126    -0.32080
C411        C  0.58053364  0.80348868  0.24937178     0.37170
C412        C  0.55374195  0.80101823  0.23194031    -0.05010
C413        C  0.52705940  0.77229262  0.22952108    -0.31980
C414        C  0.52669321  0.74647546  0.24409299     0.37080
H415        H  0.60104437  0.77988678  0.27707508     0.17450
O416        O  0.60724978  0.83100217  0.25179180    -0.59480
H417        H  0.50615009  0.76969721  0.21630897     0.17460
O418        O  0.49993264  0.71901891  0.24096465    -0.59570
H419        H  0.50055400  0.71092429  0.21230532     0.44460
H420        H  0.60775193  0.83851890  0.28133462     0.44410
C421        C  0.55700331  0.88110791  0.95049198    -0.04650
C422        C  0.56648477  0.86373040  0.97320768    -0.32080
C423        C  0.56701286  0.86365557  0.01847634     0.37170
C424        C  0.55793018  0.88114503  0.04161971    -0.05010
C425        C  0.54951717  0.89926003  0.01871929    -0.31980
C426        C  0.54921792  0.89952202  0.97374199     0.37080
H427        H  0.57259605  0.84945968  0.95589534     0.17450
O428        O  0.57479027  0.84516330  0.03959598    -0.59480
H429        H  0.54293570  0.91326570  0.03575972     0.17460
O430        O  0.54109519  0.91783637  0.95285575    -0.59570
H431        H  0.56060994  0.93704754  0.94753435     0.44460
H432        H  0.59739665  0.85711508  0.04185890     0.44410
C433        C  0.03135425  0.39668715  0.72825464    -0.04650
C434        C  0.02655738  0.39201514  0.77283696    -0.32080
C435        C  0.99714241  0.37861059  0.79001514     0.37170
C436        C  0.97163468  0.36887100  0.76244132    -0.05010
C437        C  0.97627289  0.37212354  0.71770019    -0.31980
C438        C  0.00577902  0.38618826  0.70057877     0.37080
H439        H  0.04579685  0.39983975  0.79478613     0.17450
O440        O  0.99366279  0.37513460  0.83384832    -0.59480
H441        H  0.95704667  0.36472261  0.69584569     0.17460
O442        O  0.00928742  0.38958510  0.65674459    -0.59570
H443        H  0.00830580  0.40784925  0.64983148     0.44460
H444        H  0.99820173  0.39507563  0.84484729     0.44410
C445        C  0.97075971  0.36809904  0.23610018    -0.04650
C446        C  0.99436565  0.37160080  0.20931429    -0.32080
C447        C  0.02436010  0.38457095  0.22498022     0.37170
C448        C  0.03133145  0.39477126  0.26804788    -0.05010
C449        C  0.00749622  0.39048905  0.29506594    -0.31980
C450        C  0.97754274  0.37742688  0.27947046     0.37080
H451        H  0.98965035  0.36461043  0.17586060     0.17450
O452        O  0.04681553  0.38839531  0.19726537    -0.59480
H453        H  0.01218737  0.39821100  0.32821155     0.17460
O454        O  0.95536059  0.37505279  0.30656128    -0.59570
H455        H  0.95574110  0.39436923  0.30319060     0.44460
H456        H  0.04719841  0.36941819  0.19944758     0.44410
C457        C  0.87576769  0.32452272  0.95264137    -0.04650
C458        C  0.85089970  0.32244231  0.97464935    -0.32080
C459        C  0.85017193  0.32219535  0.01967867     0.37170
C460        C  0.87485224  0.32460350  0.04370397    -0.05010
C461        C  0.89906713  0.32519604  0.02179594    -0.31980
C462        C  0.89963736  0.32510558  0.97660217     0.37080
H463        H  0.83204059  0.32138949  0.95685928     0.17450
O464        O  0.82537393  0.32004624  0.03983381    -0.59480
H465        H  0.91822814  0.32697998  0.03968378     0.17460
O466        O  0.92461103  0.32772268  0.95635178    -0.59570
H467        H  0.92033835  0.30672188  0.95396623     0.44460
H468        H  0.81144212  0.29811386  0.04535276     0.44410
C469        C  0.60578178  0.97041419  0.76349750    -0.04650
C470        C  0.61067524  0.99414416  0.79094702    -0.32080
C471        C  0.62446093  0.02394172  0.77594466     0.37170
C472        C  0.63345445  0.03061181  0.73255069    -0.05010
C473        C  0.62909048  0.00708005  0.70516323    -0.31980
C474        C  0.61571314  0.97726200  0.72038790     0.37080
H475        H  0.60308997  0.98955844  0.82409129     0.17450
O476        O  0.62712227  0.04600298  0.80331032    -0.59480
H477        H  0.63588704  0.01177178  0.67170634     0.17460
O478        O  0.61139329  0.95491110  0.69231698    -0.59570
H479        H  0.63041313  0.95427391  0.69429172     0.44460
H480        H  0.64621265  0.05263590  0.81994390     0.44410
C481        C  0.80156645  0.25307115  0.76712950    -0.04650
C482        C  0.80481488  0.23089655  0.74588868    -0.32080
C483        C  0.77928783  0.20484850  0.72882515     0.37170
C484        C  0.74989437  0.20060562  0.73297167    -0.05010
C485        C  0.74671427  0.22268743  0.75438931    -0.31980
C486        C  0.77202242  0.24851491  0.77158193     0.37080
H487        H  0.82723800  0.23388702  0.74199063     0.17450
O488        O  0.78344010  0.18394833  0.70780943    -0.59480
H489        H  0.72436113  0.21990105  0.75819072     0.17460
O490        O  0.76747397  0.26931861  0.79215265    -0.59570
H491        H  0.76330796  0.26248775  0.82258559     0.44460
H492        H  0.78674217  0.19046555  0.67721233     0.44410
C493        C  0.62889312  0.02964775  0.26624104    -0.04650
C494        C  0.64692151  0.01872933  0.24971833    -0.32080
C495        C  0.63334635  0.98903709  0.23357989     0.37170
C496        C  0.60127148  0.96991125  0.23349895    -0.05010
C497        C  0.58346942  0.98105390  0.24991623    -0.31980
C498        C  0.59687606  0.01035243  0.26627865     0.37080
H499        H  0.67157438  0.03319373  0.24940129     0.17450
O500        O  0.65161621  0.97910861  0.21789574    -0.59480
H501        H  0.55876803  0.96699895  0.25006962     0.17460
O502        O  0.57822629  0.02027883  0.28049085    -0.59570
H503        H  0.57279021  0.01255593  0.31040146     0.44460
H504        H  0.65446876  0.98487291  0.18699730     0.44410
C505        C  0.74963383  0.20007297  0.26058223    -0.04650
C506        C  0.74609839  0.22056953  0.23497839    -0.32080
C507        C  0.77137142  0.24646872  0.21817623     0.37170
C508        C  0.80118062  0.25265872  0.22712326    -0.05010
C509        C  0.80479072  0.23198348  0.25231271    -0.31980
C510        C  0.77934713  0.20593559  0.26913128     0.37080
H511        H  0.72352595  0.21655770  0.22777910     0.17450
O512        O  0.76651011  0.26573594  0.19349749    -0.59480
H513        H  0.82742936  0.23625291  0.25969392     0.17460
O514        O  0.78388932  0.18667080  0.29429313    -0.59570
H515        H  0.78613420  0.19442918  0.32412512     0.44460
H516        H  0.76426414  0.25819752  0.16353248     0.44410
C517        C  0.67412459  0.12733171  0.45271028    -0.04650
C518        C  0.65873654  0.13916734  0.47476430    -0.32080
C519        C  0.65757653  0.13875965  0.51977374     0.37170
C520        C  0.67229951  0.12667038  0.54393306    -0.05010
C521        C  0.68851444  0.11567024  0.52200959    -0.31980
C522        C  0.68948568  0.11588791  0.47684772     0.37080
H523        H  0.64699186  0.14836572  0.45708033     0.17450
O524        O  0.64239759  0.15077320  0.53974155    -0.59480
H525        H  0.70007409  0.10635431  0.53987866     0.17460
O526        O  0.70502064  0.10430715  0.45679565    -0.59570
H527        H  0.72624120  0.12166488  0.45388226     0.44460
H528        H  0.62056593  0.13442412  0.53926278     0.44410
C529        C  0.14279527  0.59479625  0.76467584    -0.04650
C530        C  0.14356710  0.59094442  0.71997107    -0.32080
C531        C  0.14355136  0.56579283  0.70321952     0.37170
C532        C  0.14241191  0.54364922  0.73128307    -0.05010
C533        C  0.14309199  0.54823635  0.77597899    -0.31980
C534        C  0.14347253  0.57354443  0.79273587     0.37080
H535        H  0.14322512  0.60700127  0.69770043     0.17450
O536        O  0.14289080  0.56231908  0.65934747    -0.59480
H537        H  0.14251830  0.53170910  0.79823295     0.17460
O538        O  0.14297962  0.57636360  0.83661176    -0.59570
H539        H  0.16475263  0.58787127  0.84568581     0.44460
H540        H  0.16462504  0.57329155  0.65057485     0.44410
C541        C  0.13053707  0.58643513  0.22853762    -0.04650
C542        C  0.15286797  0.59044653  0.25899029    -0.32080
C543        C  0.15427921  0.56564984  0.27454859     0.37170
C544        C  0.13294092  0.53618055  0.25996776    -0.05010
C545        C  0.11102314  0.53231473  0.22896880    -0.31980
C546        C  0.10955402  0.55698969  0.21351379     0.37080
H547        H  0.16933674  0.61289139  0.27080147     0.17450
O548        O  0.17648517  0.57052787  0.30409974    -0.59480
H549        H  0.09427331  0.50988454  0.21741285     0.17460
O550        O  0.08700197  0.55185415  0.18442420    -0.59570
H551        H  0.06936361  0.54819024  0.20214944     0.44460
H552        H  0.19396767  0.57334966  0.28676372     0.44410
C553        C  0.12541411  0.66681137  0.04425911    -0.04650
C554        C  0.13507550  0.69388633  0.02160878    -0.32080
C555        C  0.13407196  0.69415514  0.97641380     0.37170
C556        C  0.12312821  0.66697207  0.95308547    -0.05010
C557        C  0.11289555  0.63987958  0.97593982    -0.31980
C558        C  0.11405757  0.63963453  0.02092670     0.37080
H559        H  0.14379725  0.71500527  0.03894569     0.17450
O560        O  0.14459156  0.72122166  0.95553105    -0.59480
H561        H  0.10405296  0.61863006  0.95891122     0.17460
O562        O  0.10299634  0.61245293  0.04175427    -0.59570
H563        H  0.11997264  0.60843924  0.04148619     0.44460
H564        H  0.12679585  0.72395113  0.95373126     0.44410
C565        C  0.40768313  0.86073846  0.73221305    -0.04650
C566        C  0.42786462  0.85958166  0.70298657    -0.32080
C567        C  0.45384050  0.85959887  0.71751100     0.37170
C568        C  0.46016975  0.86086356  0.76206057    -0.05010
C569        C  0.43904843  0.86016245  0.79135502    -0.31980
C570        C  0.41301924  0.86009202  0.77683426     0.37080
H571        H  0.42413185  0.85971237  0.66857066     0.17450
O572        O  0.47334743  0.85936218  0.68770851    -0.59480
H573        H  0.44326722  0.86084791  0.82574350     0.17460
O574        O  0.39369932  0.86063945  0.80666985    -0.59570
H575        H  0.37817159  0.83907507  0.81208666     0.44460
H576        H  0.46630282  0.83767036  0.68344895     0.44410
C577        C  0.25669979  0.79867060  0.73239883    -0.04650
C578        C  0.22854498  0.79723806  0.73329354    -0.32080
C579        C  0.20217524  0.77120684  0.74811308     0.37170
C580        C  0.20386677  0.74632825  0.76345375    -0.05010
C581        C  0.23216784  0.74803824  0.76309749    -0.31980
C582        C  0.25830300  0.77369559  0.74738892     0.37080
H583        H  0.22684148  0.81618013  0.72184060     0.17450
O584        O  0.17510501  0.77068719  0.74838591    -0.59480
H585        H  0.23411009  0.72927680  0.77476464     0.17460
O586        O  0.28553079  0.77449300  0.74831102    -0.59570
H587        H  0.28528320  0.76343408  0.72209969     0.44460
H588        H  0.16641554  0.76411857  0.71898304     0.44410
C589        C  0.46061765  0.85957349  0.22669270    -0.04650
C590        C  0.44366788  0.86677170  0.19845978    -0.32080
C591        C  0.41876712  0.86839235  0.21311210     0.38050
C592        C  0.41014640  0.86255633  0.25679442    -0.05010
C593        C  0.42616294  0.85386658  0.28454583    -0.31980
C594        C  0.45130167  0.85257295  0.26996294     0.37080
H595        H  0.45046811  0.87242677  0.16513146     0.17450
O596        O  0.40392594  0.87697703  0.18471706    -0.59480
H597        H  0.41980906  0.84891078  0.31812141     0.17460
O598        O  0.46661343  0.84453368  0.29836662    -0.59570
H599        H  0.48035601  0.86319196  0.31497109     0.44460
H600        H  0.38769727  0.85787705  0.17134122     0.44410
C601        C  0.20455670  0.74664480  0.23012636    -0.04650
C602        C  0.22471395  0.74366124  0.25773492    -0.32080
C603        C  0.25052419  0.76912299  0.27495183     0.37170
C604        C  0.25707276  0.79847432  0.26395409    -0.05010
C605        C  0.23686065  0.80144682  0.23622170    -0.31980
C606        C  0.21079822  0.77584794  0.21936528     0.37080
H607        H  0.22022093  0.72139013  0.26661256     0.17450
O608        O  0.26925613  0.76489988  0.30223804    -0.59480
H609        H  0.24139852  0.82369028  0.22714185     0.17460
O610        O  0.19193122  0.77968340  0.19183620    -0.59570
H611        H  0.19979211  0.78012745  0.16256552     0.44460
H612        H  0.26070853  0.76314906  0.33140701     0.44410
C613        C  0.33656007  0.88284578  0.45059227    -0.04650
C614        C  0.30854654  0.86901311  0.47236733    -0.32080
C615        C  0.30765181  0.86869094  0.51759669     0.37170
C616        C  0.33511261  0.88245208  0.54181050    -0.05010
C617        C  0.36302372  0.89707256  0.51984873    -0.31980
C618        C  0.36392862  0.89727398  0.47486626     0.37080
H619        H  0.28724873  0.85773684  0.45433615     0.17450
O620        O  0.27984345  0.85386821  0.53761988    -0.59480
H621        H  0.38444913  0.90822751  0.53758644     0.17460
O622        O  0.39180269  0.91225198  0.45497978    -0.59570
H623        H  0.39934445  0.89800152  0.45578977     0.44460
H624        H  0.27356943  0.86905173  0.53989454     0.44410
C625        C  0.63206366  0.60105323  0.76721785    -0.04650
C626        C  0.60073673  0.58409502  0.75735881    -0.32080
C627        C  0.58561428  0.59771058  0.73984504     0.37170
C628        C  0.60155052  0.62919682  0.73251292    -0.05010
C629        C  0.63288874  0.64646101  0.74279304    -0.31980
C630        C  0.64829329  0.63251631  0.75943702     0.37080
H631        H  0.58771497  0.55985872  0.76281147     0.17450
O632        O  0.55483679  0.58004702  0.73165949    -0.59480
H633        H  0.64551696  0.67070483  0.73747243     0.17460
O634        O  0.67883896  0.64992551  0.76912268    -0.59570
H635        H  0.68944501  0.65172346  0.74168060     0.44460
H636        H  0.55313873  0.57056601  0.70321975     0.44410
C637        C  0.63147561  0.60045909  0.23245676    -0.04650
C638        C  0.60091794  0.58372961  0.24567415    -0.32080
C639        C  0.58633012  0.59792845  0.26226038     0.37170
C640        C  0.60203089  0.62973318  0.26555473    -0.05010
C641        C  0.63254489  0.64677532  0.25185361    -0.31980
C642        C  0.64743946  0.63232277  0.23585922     0.37080
H643        H  0.58800434  0.55924677  0.24331926     0.17450
O644        O  0.55614426  0.58039776  0.27341080    -0.59480
H645        H  0.64494335  0.67125664  0.25398177     0.17460
O646        O  0.67717178  0.64955024  0.22267415    -0.59570
H647        H  0.68966591  0.65313282  0.24909200     0.44460
H648        H  0.55625791  0.57258747  0.30264604     0.44410
C649        C  0.67314825  0.55881361  0.04359624    -0.04650
C650        C  0.70075753  0.56881073  0.02184249    -0.32080
C651        C  0.70153701  0.56893471  0.97659624     0.37170
C652        C  0.67438382  0.55875088  0.95259715    -0.05010
C653        C  0.64719558  0.55015112  0.97441205    -0.31980
C654        C  0.64648726  0.55045231  0.01936284     0.37080
H655        H  0.72151802  0.57538238  0.03988429     0.17450
O656        O  0.72841869  0.57695637  0.95636307    -0.59480
H657        H  0.62622003  0.54284911  0.95649319     0.17460
O658        O  0.61939461  0.54203075  0.03926613    -0.59570
H659        H  0.61981983  0.56121234  0.04428457     0.44460
H660        H  0.73928816  0.59931029  0.95364800     0.44410
C661        C  0.39921716  0.36568181  0.25907051    -0.04650
C662        C  0.36807300  0.35354243  0.26760876    -0.32080
C663        C  0.35292096  0.36807435  0.25221482     0.37170
C664        C  0.36882552  0.39453262  0.22693029    -0.05010
C665        C  0.39959234  0.40567435  0.21716521    -0.31980
C666        C  0.41474190  0.39168204  0.23306648     0.37080
H667        H  0.35582035  0.33350218  0.28750049     0.17450
O668        O  0.32270203  0.35616608  0.26181867    -0.59480
H669        H  0.41242696  0.42595115  0.19788416     0.17460
O670        O  0.44503113  0.40395572  0.22335860    -0.59570
H671        H  0.44515701  0.39301166  0.19724451     0.44460
H672        H  0.32269683  0.36428287  0.29073186     0.44410
C673        C  0.54317789  0.40466609  0.26428492    -0.04650
C674        C  0.54560339  0.41098616  0.21986276    -0.32080
C675        C  0.57121305  0.43673180  0.20292306     0.37170
C676        C  0.59517378  0.45706489  0.23048288    -0.05010
C677        C  0.59324333  0.45026248  0.27471061    -0.31980
C678        C  0.56761302  0.42444076  0.29166134     0.37080
H679        H  0.52717463  0.39630393  0.19805954     0.17450
O680        O  0.57167871  0.44255735  0.15966587    -0.59480
H681        H  0.61136735  0.46541811  0.29657003     0.17460
O682        O  0.56653033  0.41919119  0.33517295    -0.59570
H683        H  0.55838153  0.43116370  0.34791259     0.44460
H684        H  0.58044690  0.43144772  0.14594195     0.44410
C685        C  0.39822429  0.36755379  0.72813804    -0.04650
C686        C  0.41051371  0.39852401  0.72024026    -0.32080
C687        C  0.39650191  0.41359052  0.73555044     0.37170
C688        C  0.36944646  0.39791230  0.75973151    -0.05010
C689        C  0.35620103  0.36660051  0.76636057    -0.31980
C690        C  0.37053008  0.35140188  0.75097086     0.37080
H691        H  0.43153002  0.41152809  0.70237634     0.17450
O692        O  0.40983941  0.44393913  0.72692617    -0.59480
H693        H  0.33529776  0.35411272  0.78459497     0.17460
O694        O  0.35751376  0.32103809  0.75893718    -0.59570
H695        H  0.36555764  0.31978998  0.78759146     0.44460
H696        H  0.40001113  0.44505610  0.69984110     0.44410
C697        C  0.54423167  0.40830529  0.72753363    -0.04650
C698        C  0.56218353  0.40581078  0.75993720    -0.32080
C699        C  0.58859323  0.43164456  0.77575297     0.37170
C700        C  0.59713601  0.46052439  0.75950015    -0.05010
C701        C  0.57934239  0.46282062  0.72671539    -0.31980
C702        C  0.55304702  0.43718618  0.71106204     0.37080
H703        H  0.55570780  0.38380827  0.77306020     0.17450
O704        O  0.60570025  0.42838544  0.80718639    -0.59480
H705        H  0.58516810  0.48478344  0.71412713     0.17460
O706        O  0.53544052  0.44085089  0.68086607    -0.59570
H707        H  0.52047913  0.44334172  0.69768109     0.44460
H708        H  0.62142070  0.42649509  0.79144606     0.44410
C709        C  0.44504277  0.32603927  0.54530006    -0.04650
C710        C  0.45362612  0.35297772  0.52317887    -0.32080
C711        C  0.45378344  0.35385075  0.47820859     0.37170
C712        C  0.44624830  0.32764343  0.45433759    -0.05010
C713        C  0.43657027  0.30032154  0.47655423    -0.31980
C714        C  0.43568742  0.29935546  0.52178097     0.37080
H715        H  0.46041199  0.37358424  0.54094398     0.17450
O716        O  0.46186239  0.38066007  0.45805567    -0.59480
H717        H  0.43046422  0.27984463  0.45893875     0.17460
O718        O  0.42776066  0.27281109  0.54261902    -0.59570
H719        H  0.40519847  0.26190578  0.54499336     0.44460
H720        H  0.44237113  0.38007015  0.45315943     0.44410
C721        C  0.37392068  0.96871037  0.73713620    -0.04650
C722        C  0.35909319  0.98516624  0.73293440    -0.32080
C723        C  0.37283504  0.01500120  0.74859342     0.37170
C724        C  0.40156572  0.02854510  0.76953725    -0.05010
C725        C  0.41571383  0.01155363  0.77477800    -0.31980
C726        C  0.40228289  0.98213145  0.75894388     0.37080
H727        H  0.33722645  0.97522064  0.71645362     0.17450
O728        O  0.35805311  0.03062746  0.74303506    -0.59480
H729        H  0.43771346  0.02120983  0.79082684     0.17460
O730        O  0.41738959  0.96681646  0.76478033    -0.59570
H731        H  0.40954312  0.95564781  0.79228474     0.44460
H732        H  0.36408957  0.03989455  0.71399926     0.44410
C733        C  0.54283928  0.13566384  0.76682393    -0.04650
C734        C  0.55284189  0.14531884  0.72452522    -0.32080
C735        C  0.57739859  0.14397367  0.70753422     0.37170
C736        C  0.59244810  0.13279544  0.73295892    -0.05010
C737        C  0.58310727  0.12419636  0.77571522    -0.31980
C738        C  0.55871294  0.12563946  0.79272872     0.37080
H739        H  0.54120452  0.15337457  0.70414007     0.17450
O740        O  0.58643212  0.15368460  0.66611317    -0.59480
H741        H  0.59434789  0.11566733  0.79602485     0.17460
O742        O  0.54971561  0.11571816  0.83409145    -0.59570
H743        H  0.56237445  0.13365366  0.85260469     0.44460
H744        H  0.57282855  0.13607011  0.64758483     0.44410
C745        C  0.45008168  0.19894256  0.76196112    -0.04650
C746        C  0.45331709  0.22115597  0.79120913    -0.32080
C747        C  0.45398214  0.24722405  0.77688310     0.37170
C748        C  0.45153559  0.25162119  0.73251582    -0.05010
C749        C  0.44837180  0.22949447  0.70319664    -0.31980
C750        C  0.44731742  0.20319728  0.71758207     0.37080
H751        H  0.45556093  0.21845371  0.82545377     0.17450
O752        O  0.45767080  0.26851744  0.80654512    -0.59480
H753        H  0.44656192  0.23250252  0.66892875     0.17460
O754        O  0.44478560  0.18244658  0.68780292    -0.59570
H755        H  0.42254471  0.16917265  0.68230117     0.44460
H756        H  0.48006619  0.28263210  0.80897490     0.44410
C757        C  0.37595792  0.97168612  0.26769501    -0.04650
C758        C  0.35932413  0.97977414  0.24004785    -0.32080
C759        C  0.37268047  0.00930084  0.22330600     0.37170
C760        C  0.40314413  0.03118474  0.23401141    -0.05010
C761        C  0.41937910  0.02319608  0.26230997    -0.31980
C762        C  0.40612189  0.99406613  0.27932955     0.37080
H763        H  0.33611054  0.96306252  0.23073059     0.17450
O764        O  0.35604932  0.01620620  0.19573008    -0.59480
H765        H  0.44275935  0.03967449  0.27131706     0.17460
O766        O  0.42343095  0.98761131  0.30626442    -0.59570
H767        H  0.42035397  0.99320912  0.33551389     0.44460
H768        H  0.36002888  0.01131270  0.16654646     0.44410
C769        C  0.54173821  0.13588039  0.23223782    -0.04650
C770        C  0.56294238  0.13645487  0.20320835    -0.32080
C771        C  0.58825399  0.13526039  0.21789001     0.37170
C772        C  0.59289706  0.13355280  0.26247666    -0.05010
C773        C  0.57225788  0.13403687  0.29156314    -0.31980
C774        C  0.54695997  0.13525928  0.27687418     0.37080
H775        H  0.55961119  0.13720371  0.16878372     0.17450
O776        O  0.60822186  0.13574532  0.18823709    -0.59480
H777        H  0.57529967  0.13279397  0.32596522     0.17460
O778        O  0.52676237  0.13433043  0.30650149    -0.59570
H779        H  0.53494565  0.15573262  0.31479076     0.44460
H780        H  0.59906276  0.11443775  0.17868380     0.44410
C781        C  0.45092689  0.20067023  0.23009076    -0.04650
C782        C  0.42977645  0.19715424  0.26167623    -0.32080
C783        C  0.42939858  0.22230550  0.27782936     0.37170
C784        C  0.45036971  0.25154686  0.26244613    -0.05010
C785        C  0.47137802  0.25509575  0.23088508    -0.31980
C786        C  0.47171480  0.23007993  0.21453261     0.37080
H787        H  0.41370642  0.17490049  0.27432735     0.17450
O788        O  0.40902003  0.21813166  0.30946051    -0.59480
H789        H  0.48757325  0.27743931  0.21857488     0.17460
O790        O  0.49227830  0.23474254  0.18291256    -0.59570
H791        H  0.51152704  0.24029290  0.19842546     0.44460
H792        H  0.41997207  0.22030620  0.33701622     0.44410
C793        C  0.45079157  0.12465885  0.04233627    -0.04650
C794        C  0.42321159  0.10673509  0.01964395    -0.32080
C795        C  0.42239307  0.10677106  0.97437180     0.37170
C796        C  0.44950411  0.12483887  0.95100726    -0.05010
C797        C  0.47677037  0.14343237  0.97384720    -0.31980
C798        C  0.47763125  0.14342935  0.01881318     0.37080
H799        H  0.40226861  0.09225957  0.03697455     0.17450
O800        O  0.39518508  0.08835210  0.95348533    -0.59480
H801        H  0.49786344  0.15789861  0.95681648     0.17460
O802        O  0.50492256  0.16223722  0.03932365    -0.59570
H803        H  0.51590801  0.15106276  0.03953441     0.44460
H804        H  0.38540407  0.10059990  0.95068834     0.44410
C805        C  0.86568893  0.46178339  0.73993992    -0.04650
C806        C  0.88195616  0.46465838  0.77816363    -0.32080
C807        C  0.88435080  0.44056662  0.79402458     0.37170
C808        C  0.87035429  0.41280912  0.77160033    -0.05010
C809        C  0.85305078  0.40951770  0.73430516    -0.31980
C810        C  0.85070677  0.43368573  0.71838002     0.37080
H811        H  0.89381563  0.48604290  0.79526390     0.17450
O812        O  0.90164328  0.44498084  0.83037560    -0.59480
H813        H  0.84163045  0.38824523  0.71690412     0.17460
O814        O  0.83374145  0.42952969  0.68174787    -0.59570
H815        H  0.84742315  0.43218633  0.65750765     0.44460
H816        H  0.88759243  0.44064573  0.85481092     0.44410
C817        C  0.97401793  0.60157482  0.72228415    -0.04650
C818        C  0.99214175  0.58897970  0.71443360    -0.32080
C819        C  0.02159614  0.60197078  0.73137234     0.37170
C820        C  0.03392043  0.62836424  0.75684979    -0.05010
C821        C  0.01635124  0.64175530  0.76360649    -0.31980
C822        C  0.98647066  0.62839984  0.74689030     0.37080
H823        H  0.98327228  0.56839501  0.69570394     0.17450
O824        O  0.03793115  0.58824952  0.72317087    -0.59480
H825        H  0.02544600  0.66213393  0.78285902     0.17460
O826        O  0.96969446  0.64162803  0.75510728    -0.59570
H827        H  0.96030430  0.63368704  0.78365454     0.44460
H828        H  0.04934778  0.59787749  0.69637967     0.44410
C829        C  0.80293450  0.55300829  0.73134297    -0.04650
C830        C  0.79649211  0.54872530  0.77554800    -0.32080
C831        C  0.77079922  0.54803496  0.79206611     0.37170
C832        C  0.75155154  0.55269661  0.76447943    -0.05010
C833        C  0.75849631  0.55790749  0.72044836    -0.31980
C834        C  0.78365086  0.55756872  0.70367694     0.37080
H835        H  0.81098037  0.54507910  0.79731212     0.17450
O836        O  0.76514080  0.54349701  0.83542570    -0.59480
H837        H  0.74393373  0.56147424  0.69872998     0.17460
O838        O  0.78956527  0.56241661  0.66041168    -0.59570
H839        H  0.77607643  0.54245211  0.64660815     0.44460
H840        H  0.75456502  0.52124971  0.83949818     0.44410
C841        C  0.87298816  0.41411808  0.22731416    -0.04650
C842        C  0.88475281  0.44038859  0.20200346    -0.32080
C843        C  0.88470010  0.46593464  0.21680385     0.37170
C844        C  0.87292440  0.46571924  0.25789537    -0.05010
C845        C  0.86026921  0.43912276  0.28262093    -0.31980
C846        C  0.86028030  0.41355296  0.26779169     0.37080
H847        H  0.89447836  0.44137511  0.17072933     0.17450
O848        O  0.89699766  0.49121309  0.19115529    -0.59480
H849        H  0.85079662  0.43823545  0.31406328     0.17460
O850        O  0.84779886  0.38818932  0.29328950    -0.59570
H851        H  0.86436576  0.39150045  0.31355655     0.44460
H852        H  0.87983735  0.48856632  0.17271522     0.44410
C853        C  0.03381957  0.63621473  0.23505273    -0.04650
C854        C  0.02895827  0.63305836  0.27975232    -0.32080
C855        C  0.99939392  0.61909349  0.29654462     0.37170
C856        C  0.97398764  0.60855708  0.26857947    -0.05010
C857        C  0.97894457  0.61312831  0.22405051    -0.31980
C858        C  0.00841915  0.62642947  0.20716893     0.37080
H859        H  0.04804465  0.64046266  0.30186972     0.17450
O860        O  0.99563540  0.61579916  0.34035866    -0.59480
H861        H  0.95976689  0.60506137  0.20192375     0.17460
O862        O  0.01195497  0.62918030  0.16328935    -0.59570
H863        H  0.00795480  0.60922207  0.15321271     0.44460
H864        H  0.99697957  0.59778612  0.34764503     0.44410
C865        C  0.80234076  0.55133062  0.26369858    -0.04650
C866        C  0.78573127  0.53242833  0.22901232    -0.32080
C867        C  0.75985975  0.53174126  0.21255373     0.37170
C868        C  0.74989075  0.55009501  0.23097002    -0.05010
C869        C  0.76669928  0.56922823  0.26556213    -0.31980
C870        C  0.79269080  0.56990778  0.28196267     0.37080
H871        H  0.79294067  0.51815702  0.21429321     0.17450
O872        O  0.74488126  0.51338255  0.17792039    -0.59480
H873        H  0.75949144  0.58346218  0.28037160     0.17460
O874        O  0.80804829  0.58831144  0.31638535    -0.59570
H875        H  0.79844541  0.57562542  0.34226179     0.44460
H876        H  0.73093258  0.49308637  0.19038756     0.44410
C877        C  0.88056041  0.54886208  0.45246489    -0.04650
C878        C  0.87779972  0.57100194  0.47472118    -0.32080
C879        C  0.87802022  0.57171837  0.51993807     0.37170
C880        C  0.88081469  0.54990967  0.54372231    -0.05010
C881        C  0.88395321  0.52807783  0.52143907    -0.31980
C882        C  0.88390390  0.52743340  0.47641454     0.37080
H883        H  0.87516617  0.58768510  0.45706672     0.17450
O884        O  0.87428613  0.59307182  0.54040167    -0.59480
H885        H  0.88660030  0.51136490  0.53899982     0.17460
O886        O  0.88796291  0.50617723  0.45627811    -0.59570
H887        H  0.86740003  0.48757415  0.45525072     0.44460
H888        H  0.89502856  0.61139556  0.54201345     0.44410
loop_ 
_geom_bond_atom_site_label_1 
_geom_bond_atom_site_label_2 
_geom_bond_distance 
_geom_bond_site_symmetry_2 
_ccdc_geom_bond_type 
O1            C4   1.268       .  A
O1           Cd6   2.471       .  S
C2           O11   1.266       .  A
C2            O7   1.265       .  A
C2          C877   1.483       .  S
O3            C9   1.266       .  A
O3           Cd6   2.475       .  S
C4           O12   1.265       .  A
C4          C844   1.484       .  S
C5           O10   1.265       .  A
C5            O8   1.262       .  A
C5          C865   1.478       .  S
Cd6          O13   2.453       .  S
Cd6          O12   2.445       .  S
Cd6          O11   2.477       .  S
Cd6           O7   2.447       .  S
Cd6          O10   2.492       .  S
Cd6           O8   2.448       .  S
C9           O13   1.263       .  A
C9          C856   1.480       .  S
O14          C17   1.266       .  A
O14         Cd19   2.480       .  S
C15          O24   1.268       .  A
C15          O20   1.266       .  A
C15         C880   1.481       .  S
O16          C22   1.264       .  A
O16         Cd19   2.467       .  S
C17          O25   1.263       .  A
C17         C805   1.481       .  S
C18          O23   1.268       .  A
C18          O21   1.262       .  A
C18         C817   1.483       .  S
Cd19         O26   2.466       .  S
Cd19         O25   2.442       .  S
Cd19         O24   2.478       .  S
Cd19         O20   2.433       .  S
Cd19         O23   2.509       .  S
Cd19         O21   2.410       .  S
C22          O26   1.263       .  A
C22         C829   1.477       .  S
O27          C30   1.262       .  A
O27         Cd32   2.431       .  S
C28          O37   1.267       .  A
C28          O33   1.267       .  A
C28         C769   1.483       .  S
O29          C35   1.267       .  A
O29         Cd32   2.505       .  S
C30          O38   1.267       .  A
C30         C793   1.484       .  S
C31          O36   1.268       .  A
C31          O34   1.261       .  A
C31         C760   1.482       .  S
Cd32         O39   2.440       .  S
Cd32         O38   2.501       .  S
Cd32         O37   2.460       .  S
Cd32         O33   2.452       .  S
Cd32         O36   2.528       .  S
Cd32         O34   2.416       .  S
C35          O39   1.261       .  A
C35         C781   1.486       .  S
O40          C43   1.265       .  A
O40         Cd45   2.422       .  S
C41          O50   1.266       .  A
C41          O46   1.263       .  A
C41         C733   1.481       .  S
O42          C48   1.269       .  A
O42         Cd45   2.520       .  S
C43          O51   1.268       .  A
C43         C796   1.484       .  S
C44          O49   1.266       .  A
C44          O47   1.263       .  A
C44         C745   1.482       .  S
Cd45         O52   2.411       .  S
Cd45         O51   2.492       .  S
Cd45         O50   2.476       .  S
Cd45         O46   2.444       .  S
Cd45         O49   2.484       .  S
Cd45         O47   2.448       .  S
C48          O52   1.262       .  A
C48         C724   1.485       .  S
O53          C56   1.263       .  A
O53         Cd58   2.428       .  S
C54          O63   1.265       .  A
C54          O59   1.262       .  A
C54         C697   1.479       .  S
O55          C61   1.266       .  A
O55         Cd58   2.541       .  S
C56          O64   1.267       .  A
C56         C709   1.472       .  S
C57          O62   1.267       .  A
C57          O60   1.266       .  A
C57         C748   1.479       .  S
Cd58         O65   2.403       .  S
Cd58         O64   2.498       .  S
Cd58         O63   2.496       .  S
Cd58         O59   2.442       .  S
Cd58         O62   2.459       .  S
Cd58         O60   2.457       .  S
C61          O65   1.259       .  A
C61         C685   1.484       .  S
O66          C69   1.270       .  A
O66         Cd71   2.480       .  S
C67          O76   1.263       .  A
C67          O72   1.262       .  A
C67         C712   1.482       .  S
O68          C74   1.266       .  A
O68         Cd71   2.532       .  S
C69          O77   1.268       .  A
C69         C673   1.489       .  S
C70          O75   1.266       .  A
C70          O73   1.264       .  A
C70         C784   1.476       .  S
Cd71         O78   2.411       .  S
Cd71         O77   2.449       .  S
Cd71         O76   2.494       .  S
Cd71         O72   2.457       .  S
Cd71         O75   2.485       .  S
Cd71         O73   2.450       .  S
C74          O78   1.258       .  A
C74         C661   1.475       .  S
O79          C82   1.267       .  A
O79         Cd84   2.470       .  S
C80          O89   1.265       .  A
C80          O85   1.263       .  A
C80         C649   1.480       .  S
O81          C87   1.267       .  A
O81         Cd84   2.527       .  S
C82          O90   1.267       .  A
C82         C676   1.488       .  S
C83          O88   1.268       .  A
C83          O86   1.265       .  A
C83         C868   1.484       .  S
Cd84         O91   2.405       .  S
Cd84         O90   2.473       .  S
Cd84         O89   2.500       .  S
Cd84         O85   2.445       .  S
Cd84         O88   2.479       .  S
Cd84         O86   2.439       .  S
C87          O91   1.260       .  A
C87         C637   1.482       .  S
O92          C95   1.264       .  A
O92         Cd97   2.442       .  S
C93         O102   1.263       .  A
C93          O98   1.267       .  A
C93         C700   1.480       .  S
O94         C100   1.269       .  A
O94         Cd97   2.518       .  S
C95         O103   1.265       .  A
C95         C652   1.477       .  S
C96         O101   1.267       .  A
C96          O99   1.264       .  A
C96         C832   1.477       .  S
Cd97        O104   2.403       .  S
Cd97        O103   2.489       .  S
Cd97        O102   2.436       .  S
Cd97         O98   2.494       .  S
Cd97        O101   2.475       .  S
Cd97         O99   2.442       .  S
C100        O104   1.262       .  A
C100        C625   1.481       .  S
O105        C108   1.262       .  A
O105       Cd110   2.436       .  S
C106        O115   1.265       .  A
C106        O111   1.265       .  A
C106        C592   1.484       .  S
O107        C113   1.267       .  A
O107       Cd110   2.482       .  S
C108        O116   1.266       .  A
C108        C613   1.481       .  S
C109        O114   1.267       .  A
C109        O112   1.262       .  A
C109        C757   1.487       .  S
Cd110       O117   2.442       .  S
Cd110       O116   2.500       .  S
Cd110       O115   2.465       .  S
Cd110       O111   2.465       .  S
Cd110       O114   2.512       .  S
Cd110       O112   2.428       .  S
C113        O117   1.264       .  A
C113        C604   1.484       .  S
O118        C121   1.268       .  A
O118       Cd123   2.455       .  S
C119        O128   1.264       .  A
C119        O124   1.262       .  A
C119        C616   1.483       .  S
O120        C126   1.267       .  A
O120       Cd123   2.483       .  S
C121        O129   1.267       .  A
C121        C565   1.483       .  S
C122        O127   1.266       .  A
C122        O125   1.260       .  A
C122        C721   1.482       .  S
Cd123       O130   2.438       .  S
Cd123       O129   2.451       .  S
Cd123       O128   2.495       .  S
Cd123       O124   2.451       .  S
Cd123       O127   2.525       .  S
Cd123       O125   2.423       .  S
C126        O130   1.263       .  A
C126        C577   1.479       .  S
O131        C134   1.264       .  A
O131       Cd136   2.442       .  S
C132        O141   1.265       .  A
C132        O137   1.265       .  A
C132        C541   1.480       .  S
O133        C139   1.267       .  A
O133       Cd136   2.482       .  S
C134        O142   1.266       .  A
C134        C553   1.480       .  S
C135        O140   1.264       .  A
C135        O138   1.261       .  A
C135        C853   1.483       .  S
Cd136       O143   2.444       .  S
Cd136       O142   2.482       .  S
Cd136       O141   2.471       .  S
Cd136       O137   2.451       .  S
Cd136       O140   2.485       .  S
Cd136       O138   2.460       .  S
C139        O143   1.264       .  A
C139        C601   1.478       .  S
O144        C147   1.267       .  A
O144       Cd149   2.453       .  S
C145        O154   1.264       .  A
C145        O150   1.263       .  A
C145        C556   1.483       .  S
O146        C152   1.266       .  A
O146       Cd149   2.477       .  S
C147        O155   1.267       .  A
C147        C529   1.483       .  S
C148        O153   1.266       .  A
C148        O151   1.260       .  A
C148        C820   1.482       .  S
Cd149       O156   2.442       .  S
Cd149       O155   2.456       .  S
Cd149       O154   2.487       .  S
Cd149       O150   2.451       .  S
Cd149       O153   2.520       .  S
Cd149       O151   2.421       .  S
C152        O156   1.264       .  A
C152        C580   1.481       .  S
O157        C160   1.267       .  A
O157       Cd162   2.456       .  S
C158        O167   1.265       .  A
C158        O163   1.264       .  A
C158        C517   1.483       .  S
O159        C165   1.266       .  A
O159       Cd162   2.509       .  S
C160        O168   1.267       .  A
C160        C772   1.484       .  S
C161        O166   1.266       .  A
C161        O164   1.262       .  A
C161        C505   1.481       .  S
Cd162       O169   2.432       .  S
Cd162       O168   2.456       .  S
Cd162       O167   2.483       .  S
Cd162       O163   2.451       .  S
Cd162       O166   2.495       .  S
Cd162       O164   2.437       .  S
C165        O169   1.262       .  A
C165        C493   1.482       .  S
O170        C173   1.266       .  A
O170       Cd175   2.473       .  S
C171        O180   1.267       .  A
C171        O176   1.265       .  A
C171        C520   1.482       .  S
O172        C178   1.265       .  A
O172       Cd175   2.497       .  S
C173        O181   1.265       .  A
C173        C736   1.482       .  S
C174        O179   1.263       .  A
C174        O177   1.265       .  A
C174        C472   1.481       .  S
Cd175       O182   2.433       .  S
Cd175       O181   2.445       .  S
Cd175       O180   2.477       .  S
Cd175       O176   2.441       .  S
Cd175       O179   2.461       .  S
Cd175       O177   2.487       .  S
C178        O182   1.262       .  A
C178        C484   1.480       .  S
O183        C186   1.265       .  A
O183       Cd188   2.448       .  S
C184        O193   1.263       .  A
C184        O189   1.266       .  A
C184        C841   1.484       .  S
O185        C191   1.267       .  A
O185       Cd188   2.494       .  S
C186        O194   1.266       .  A
C186        C460   1.479       .  S
C187        O192   1.265       .  A
C187        O190   1.265       .  A
C187        C445   1.481       .  S
Cd188       O195   2.430       .  S
Cd188       O194   2.479       .  S
Cd188       O193   2.454       .  S
Cd188       O189   2.480       .  S
Cd188       O192   2.464       .  S
Cd188       O190   2.469       .  S
C191        O195   1.262       .  A
C191        C508   1.483       .  S
O196        C199   1.265       .  A
O196       Cd201   2.448       .  S
C197        O206   1.264       .  A
C197        O202   1.265       .  A
C197        C808   1.482       .  S
O198        C204   1.266       .  A
O198       Cd201   2.480       .  S
C199        O207   1.266       .  A
C199        C457   1.480       .  S
C200        O205   1.267       .  A
C200        O203   1.262       .  A
C200        C481   1.483       .  S
Cd201       O208   2.457       .  S
Cd201       O207   2.481       .  S
Cd201       O206   2.460       .  S
Cd201       O202   2.468       .  S
Cd201       O205   2.496       .  S
Cd201       O203   2.423       .  S
C204        O208   1.264       .  A
C204        C436   1.483       .  S
O209        C212   1.262       .  A
O209       Cd214   2.449       .  S
C210        O219   1.267       .  A
C210        O215   1.268       .  A
C210        C589   1.482       .  S
O211        C217   1.268       .  A
O211       Cd214   2.487       .  S
C212        O220   1.264       .  A
C212        C424   1.481       .  S
C213        O218   1.267       .  A
C213        O216   1.259       .  A
C213        C496   1.484       .  S
Cd214       O221   2.436       .  S
Cd214       O220   2.498       .  S
Cd214       O219   2.457       .  S
Cd214       O215   2.455       .  S
Cd214       O218   2.536       .  S
Cd214       O216   2.411       .  S
C217        O221   1.265       .  A
C217        C412   1.484       .  S
O222        C225   1.264       .  A
O222       Cd227   2.434       .  S
C223        O232   1.264       .  A
C223        O228   1.266       .  A
C223        C568   1.481       .  S
O224        C230   1.265       .  A
O224       Cd227   2.495       .  S
C225        O233   1.267       .  A
C225        C421   1.479       .  S
C226        O231   1.268       .  A
C226        O229   1.265       .  A
C226        C397   1.483       .  S
Cd227       O234   2.452       .  S
Cd227       O233   2.492       .  S
Cd227       O232   2.454       .  S
Cd227       O228   2.471       .  S
Cd227       O231   2.489       .  S
Cd227       O229   2.434       .  S
C230        O234   1.262       .  A
C230        C469   1.485       .  S
O235        C238   1.264       .  A
O235       Cd240   2.455       .  S
C236        O245   1.266       .  A
C236        O241   1.268       .  A
C236        C373   1.487       .  S
O237        C243   1.268       .  A
O237       Cd240   2.504       .  S
C238        O246   1.264       .  A
C238        C385   1.482       .  S
C239        O244   1.269       .  A
C239        O242   1.263       .  A
C239        C640   1.480       .  S
Cd240       O247   2.429       .  S
Cd240       O246   2.487       .  S
Cd240       O245   2.458       .  S
Cd240       O241   2.472       .  S
Cd240       O244   2.509       .  S
Cd240       O242   2.406       .  S
C243        O247   1.262       .  A
C243        C409   1.483       .  S
O248        C251   1.267       .  A
O248       Cd253   2.469       .  S
C249        O258   1.265       .  A
C249        O254   1.263       .  A
C249        C388   1.481       .  S
O250        C256   1.268       .  A
O250       Cd253   2.506       .  S
C251        O259   1.266       .  A
C251        C361   1.486       .  S
C252        O257   1.269       .  A
C252        O255   1.264       .  A
C252        C628   1.481       .  S
Cd253       O260   2.424       .  S
Cd253       O259   2.464       .  S
Cd253       O258   2.497       .  S
Cd253       O254   2.450       .  S
Cd253       O257   2.502       .  S
Cd253       O255   2.415       .  S
C256        O260   1.261       .  A
C256        C400   1.484       .  S
O261        C264   1.264       .  A
O261       Cd266   2.435       .  S
C262        O271   1.263       .  A
C262        O267   1.266       .  A
C262        C544   1.480       .  S
O263        C269   1.267       .  A
O263       Cd266   2.486       .  S
C264        O272   1.267       .  A
C264        C349   1.480       .  S
C265        O270   1.267       .  A
C265        O268   1.264       .  A
C265        C448   1.484       .  S
Cd266       O273   2.444       .  S
Cd266       O272   2.495       .  S
Cd266       O271   2.440       .  S
Cd266       O267   2.484       .  S
Cd266       O270   2.480       .  S
Cd266       O268   2.446       .  S
C269        O273   1.264       .  A
C269        C337   1.485       .  S
O274        C277   1.266       .  A
O274       Cd279   2.425       .  S
C275        O284   1.262       .  A
C275        O280   1.263       .  A
C275        C532   1.482       .  S
O276        C282   1.264       .  A
O276       Cd279   2.481       .  S
C277        O285   1.269       .  A
C277        C352   1.481       .  S
C278        O283   1.265       .  A
C278        O281   1.265       .  A
C278        C325   1.476       .  S
Cd279       O286   2.473       .  S
Cd279       O285   2.489       .  S
Cd279       O284   2.465       .  S
Cd279       O280   2.482       .  S
Cd279       O283   2.467       .  S
Cd279       O281   2.467       .  S
C282        O286   1.262       .  A
C282        C433   1.484       .  S
O287        C290   1.262       .  A
O287       Cd292   2.443       .  S
C288        O297   1.266       .  A
C288        O293   1.267       .  A
C288        C376   1.483       .  S
O289        C295   1.268       .  A
O289       Cd292   2.478       .  S
C290        O298   1.265       .  A
C290        C313   1.480       .  S
C291        O296   1.266       .  A
C291        O294   1.260       .  A
C291        C664   1.482       .  S
Cd292       O299   2.441       .  S
Cd292       O298   2.503       .  S
Cd292       O297   2.465       .  S
Cd292       O293   2.469       .  S
Cd292       O296   2.524       .  S
Cd292       O294   2.413       .  S
C295        O299   1.266       .  A
C295        C340   1.482       .  S
O300        C303   1.264       .  A
O300       Cd305   2.445       .  S
C301        O310   1.264       .  A
C301        O306   1.267       .  A
C301        C364   1.486       .  S
O302        C308   1.267       .  A
O302       Cd305   2.538       .  S
C303        O311   1.265       .  A
C303        C316   1.478       .  S
C304        O309   1.267       .  A
C304        O307   1.265       .  A
C304        C328   1.476       .  S
Cd305       O312   2.398       .  S
Cd305       O311   2.492       .  S
Cd305       O310   2.460       .  S
Cd305       O306   2.480       .  S
Cd305       O309   2.471       .  S
Cd305       O307   2.452       .  S
C308        O312   1.259       .  A
C308        C688   1.481       .  S
C313        C314   1.404       .  A
C313        C318   1.410       .  A
C314        C315   1.396   1_554  A
C314        H319   1.084       .  S
C315        C316   1.408       .  A
C315        O320   1.372       .  S
C316        C317   1.406       .  A
C317        C318   1.405   1_556  A
C317        H321   1.084       .  S
C318        O322   1.371       .  S
O320        H324   0.992       .  S
O322        H323   0.992       .  S
C325        C326   1.403       .  A
C325        C330   1.409       .  A
C326        C327   1.400       .  A
C326        H331   1.084       .  S
C327        C328   1.409       .  A
C327        O332   1.372       .  S
C328        C329   1.404       .  A
C329        C330   1.401       .  A
C329        H333   1.084       .  S
C330        O334   1.372       .  S
O332        H336   0.992       .  S
O334        H335   0.992       .  S
C337        C338   1.406       .  A
C337        C342   1.412       .  A
C338        C339   1.403       .  A
C338        H343   1.083       .  S
C339        C340   1.410       .  A
C339        O344   1.371       .  S
C340        C341   1.403       .  A
C341        C342   1.398       .  A
C341        H345   1.084       .  S
C342        O346   1.372       .  S
O344        H348   0.992       .  S
O346        H347   0.992       .  S
C349        C350   1.406       .  A
C349        C354   1.409       .  A
C350        C351   1.405       .  A
C350        H355   1.083       .  S
C351        C352   1.411       .  A
C351        O356   1.371       .  S
C352        C353   1.403       .  A
C353        C354   1.395       .  A
C353        H357   1.084       .  S
C354        O358   1.372       .  S
O356        H360   0.992       .  S
O358        H359   0.992       .  S
C361        C362   1.405       .  A
C361        C366   1.412       .  A
C362        C363   1.401       .  A
C362        H367   1.083       .  S
C363        C364   1.412       .  A
C363        O368   1.372       .  S
C364        C365   1.405       .  A
C365        C366   1.401       .  A
C365        H369   1.083       .  S
C366        O370   1.371       .  S
O368        H372   0.992       .  S
O370        H371   0.992       .  S
C373        C374   1.406       .  A
C373        C378   1.413       .  A
C374        C375   1.402       .  A
C374        H379   1.083       .  S
C375        C376   1.410       .  A
C375        O380   1.372       .  S
C376        C377   1.404       .  A
C377        C378   1.401       .  A
C377        H381   1.084       .  S
C378        O382   1.371       .  S
O380        H384   0.992       .  S
O382        H383   0.992       .  S
C385        C386   1.403       .  A
C385        C390   1.412       .  A
C386        C387   1.397       .  A
C386        H391   1.084       .  S
C387        C388   1.410       .  A
C387        O392   1.372       .  S
C388        C389   1.405       .  A
C389        C390   1.404       .  A
C389        H393   1.083       .  S
C390        O394   1.371       .  S
O392        H396   0.992       .  S
O394        H395   0.992       .  S
C397        C398   1.403       .  A
C397        C402   1.411       .  A
C398        C399   1.395       .  A
C398        H403   1.084       .  S
C399        C400   1.412       .  A
C399        O404   1.372       .  S
C400        C401   1.406       .  A
C401        C402   1.405       .  A
C401        H405   1.083       .  S
C402        O406   1.371       .  S
O404        H408   0.992       .  S
O406        H407   0.992       .  S
C409        C410   1.405       .  A
C409        C414   1.412       .  A
C410        C411   1.404       .  A
C410        H415   1.083       .  S
C411        C412   1.412       .  A
C411        O416   1.371       .  S
C412        C413   1.404       .  A
C413        C414   1.396       .  A
C413        H417   1.084       .  S
C414        O418   1.372       .  S
O416        H420   0.992       .  S
O418        H419   0.992       .  S
C421        C422   1.405       .  A
C421        C426   1.409       .  A
C422        C423   1.404   1_556  A
C422        H427   1.083       .  S
C423        C424   1.412       .  A
C423        O428   1.371       .  S
C424        C425   1.403       .  A
C425        C426   1.395   1_554  A
C425        H429   1.084       .  S
C426        O430   1.372       .  S
O428        H432   0.992       .  S
O430        H431   0.992       .  S
C433        C434   1.405       .  A
C433        C438   1.411       .  A
C434        C435   1.400   1_455  A
C434        H439   1.083       .  S
C435        C436   1.411       .  A
C435        O440   1.372       .  S
C436        C437   1.405       .  A
C437        C438   1.402   1_655  A
C437        H441   1.083       .  S
C438        O442   1.372       .  S
O440        H444   0.992       .  S
O442        H443   0.992       .  S
C445        C446   1.405       .  A
C445        C450   1.409       .  A
C446        C447   1.402   1_655  A
C446        H451   1.084       .  S
C447        C448   1.412       .  A
C447        O452   1.371       .  S
C448        C449   1.406       .  A
C449        C450   1.399   1_455  A
C449        H453   1.083       .  S
C450        O454   1.372       .  S
O452        H456   0.992       .  S
O454        H455   0.992       .  S
C457        C458   1.404       .  A
C457        C462   1.411       .  A
C458        C459   1.398   1_556  A
C458        H463   1.084       .  S
C459        C460   1.409       .  A
C459        O464   1.372       .  S
C460        C461   1.405       .  A
C461        C462   1.403   1_554  A
C461        H465   1.084       .  S
C462        O466   1.371       .  S
O464        H468   0.992       .  S
O466        H467   0.992       .  S
C469        C470   1.406       .  A
C469        C474   1.412       .  A
C470        C471   1.398   1_565  A
C470        H475   1.083       .  S
C471        C472   1.409       .  A
C471        O476   1.372       .  S
C472        C473   1.404       .  A
C473        C474   1.403   1_545  A
C473        H477   1.084       .  S
C474        O478   1.371       .  S
O476        H480   0.992       .  S
O478        H479   0.992       .  S
C481        C482   1.406       .  A
C481        C486   1.412       .  A
C482        C483   1.403       .  A
C482        H487   1.083       .  S
C483        C484   1.410       .  A
C483        O488   1.371       .  S
C484        C485   1.403       .  A
C485        C486   1.395       .  A
C485        H489   1.084       .  S
C486        O490   1.372       .  S
O488        H492   0.992       .  S
O490        H491   0.992       .  S
C493        C494   1.407       .  A
C493        C498   1.409       .  A
C494        C495   1.407   1_545  A
C494        H499   1.083       .  S
C495        C496   1.411       .  A
C495        O500   1.371       .  S
C496        C497   1.405       .  A
C497        C498   1.393   1_565  A
C497        H501   1.084       .  S
C498        O502   1.372       .  S
O500        H504   0.992       .  S
O502        H503   0.992       .  S
C505        C506   1.404       .  A
C505        C510   1.410       .  A
C506        C507   1.395       .  A
C506        H511   1.084       .  S
C507        C508   1.412       .  A
C507        O512   1.372       .  S
C508        C509   1.406       .  A
C509        C510   1.403       .  A
C509        H513   1.083       .  S
C510        O514   1.371       .  S
O512        H516   0.992       .  S
O514        H515   0.992       .  S
C517        C518   1.405       .  A
C517        C522   1.411       .  A
C518        C519   1.398       .  A
C518        H523   1.083       .  S
C519        C520   1.411       .  A
C519        O524   1.372       .  S
C520        C521   1.405       .  A
C521        C522   1.402       .  A
C521        H525   1.083       .  S
C522        O526   1.371       .  S
O524        H528   0.992       .  S
O526        H527   0.992       .  S
C529        C530   1.406       .  A
C529        C534   1.411       .  A
C530        C531   1.400       .  A
C530        H535   1.083       .  S
C531        C532   1.411       .  A
C531        O536   1.371       .  S
C532        C533   1.405       .  A
C533        C534   1.399       .  A
C533        H537   1.083       .  S
C534        O538   1.371       .  S
O536        H540   0.992       .  S
O538        H539   0.992       .  S
C541        C542   1.406       .  A
C541        C546   1.410       .  A
C542        C543   1.402       .  A
C542        H547   1.083       .  S
C543        C544   1.410       .  A
C543        O548   1.371       .  S
C544        C545   1.404       .  A
C545        C546   1.396       .  A
C545        H549   1.084       .  S
C546        O550   1.372       .  S
O548        H552   0.992       .  S
O550        H551   0.992       .  S
C553        C554   1.405       .  A
C553        C558   1.410       .  A
C554        C555   1.403   1_554  A
C554        H559   1.083       .  S
C555        C556   1.412       .  A
C555        O560   1.371       .  S
C556        C557   1.404       .  A
C557        C558   1.397   1_556  A
C557        H561   1.083       .  S
C558        O562   1.372       .  S
O560        H564   0.992       .  S
O562        H563   0.992       .  S
C565        C566   1.405       .  A
C565        C570   1.412       .  A
C566        C567   1.399       .  A
C566        H571   1.083       .  S
C567        C568   1.410       .  A
C567        O572   1.371       .  S
C568        C569   1.404       .  A
C569        C570   1.400       .  A
C569        H573   1.083       .  S
C570        O574   1.371       .  S
O572        H576   0.992       .  S
O574        H575   0.992       .  S
C577        C578   1.404       .  A
C577        C582   1.410       .  A
C578        C579   1.402       .  A
C578        H583   1.083       .  S
C579        C580   1.411       .  A
C579        O584   1.371       .  S
C580        C581   1.404       .  A
C581        C582   1.397       .  A
C581        H585   1.084       .  S
C582        O586   1.372       .  S
O584        H588   0.992       .  S
O586        H587   0.992       .  S
C589        C590   1.405       .  A
C589        C594   1.410       .  A
C590        C591   1.399       .  A
C590        H595   1.083       .  S
C591        C592   1.411       .  A
C591        O596   1.371       .  S
C592        C593   1.406       .  A
C593        C594   1.401       .  A
C593        H597   1.083       .  S
C594        O598   1.372       .  S
O596        H600   0.992       .  S
O598        H599   0.992       .  S
C601        C602   1.403       .  A
C601        C606   1.409       .  A
C602        C603   1.397       .  A
C602        H607   1.084       .  S
C603        C604   1.413       .  A
C603        O608   1.372       .  S
C604        C605   1.407       .  A
C605        C606   1.402       .  A
C605        H609   1.083       .  S
C606        O610   1.371       .  S
O608        H612   0.992       .  S
O610        H611   0.992       .  S
C613        C614   1.405       .  A
C613        C618   1.410       .  A
C614        C615   1.404       .  A
C614        H619   1.083       .  S
C615        C616   1.412       .  A
C615        O620   1.371       .  S
C616        C617   1.404       .  A
C617        C618   1.396       .  A
C617        H621   1.083       .  S
C618        O622   1.372       .  S
O620        H624   0.992       .  S
O622        H623   0.992       .  S
C625        C626   1.403       .  A
C625        C630   1.410       .  A
C626        C627   1.392       .  A
C626        H631   1.084       .  S
C627        C628   1.409       .  A
C627        O632   1.372       .  S
C628        C629   1.407       .  A
C629        C630   1.408       .  A
C629        H633   1.083       .  S
C630        O634   1.371       .  S
O632        H636   0.992       .  S
O634        H635   0.992       .  S
C637        C638   1.403       .  A
C637        C642   1.412       .  A
C638        C639   1.391       .  A
C638        H643   1.084       .  S
C639        C640   1.409       .  A
C639        O644   1.372       .  S
C640        C641   1.407       .  A
C641        C642   1.408       .  A
C641        H645   1.083       .  S
C642        O646   1.371       .  S
O644        H648   0.992       .  S
O646        H647   0.992       .  S
C649        C650   1.406       .  A
C649        C654   1.409       .  A
C650        C651   1.404   1_554  A
C650        H655   1.083       .  S
C651        C652   1.410       .  A
C651        O656   1.371       .  S
C652        C653   1.402       .  A
C653        C654   1.396   1_556  A
C653        H657   1.084       .  S
C654        O658   1.372       .  S
O656        H660   0.992       .  S
O658        H659   0.992       .  S
C661        C662   1.405       .  A
C661        C666   1.407       .  A
C662        C663   1.408       .  A
C662        H667   1.083       .  S
C663        C664   1.412       .  A
C663        O668   1.371       .  S
C664        C665   1.404       .  A
C665        C666   1.391       .  A
C665        H669   1.084       .  S
C666        O670   1.373       .  S
O668        H672   0.992       .  S
O670        H671   0.992       .  S
C673        C674   1.406       .  A
C673        C678   1.412       .  A
C674        C675   1.401       .  A
C674        H679   1.083       .  S
C675        C676   1.411       .  A
C675        O680   1.371       .  S
C676        C677   1.406       .  A
C677        C678   1.403       .  A
C677        H681   1.083       .  S
C678        O682   1.371       .  S
O680        H684   0.992       .  S
O682        H683   0.992       .  S
C685        C686   1.403       .  A
C685        C690   1.412       .  A
C686        C687   1.390       .  A
C686        H691   1.084       .  S
C687        C688   1.410       .  A
C687        O692   1.372       .  S
C688        C689   1.407       .  A
C689        C690   1.409       .  A
C689        H693   1.083       .  S
C690        O694   1.371       .  S
O692        H696   0.992       .  S
O694        H695   0.992       .  S
C697        C698   1.405       .  A
C697        C702   1.410       .  A
C698        C699   1.405       .  A
C698        H703   1.083       .  S
C699        C700   1.411       .  A
C699        O704   1.371       .  S
C700        C701   1.404       .  A
C701        C702   1.395       .  A
C701        H705   1.084       .  S
C702        O706   1.372       .  S
O704        H708   0.992       .  S
O706        H707   0.992       .  S
C709        C710   1.401       .  A
C709        C714   1.407       .  A
C710        C711   1.396       .  A
C710        H715   1.084       .  S
C711        C712   1.411       .  A
C711        O716   1.371       .  S
C712        C713   1.408       .  A
C713        C714   1.404       .  A
C713        H717   1.083       .  S
C714        O718   1.371       .  S
O716        H720   0.992       .  S
O718        H719   0.992       .  S
C721        C722   1.406       .  A
C721        C726   1.410       .  A
C722        C723   1.408   1_565  A
C722        H727   1.083       .  S
C723        C724   1.412       .  A
C723        O728   1.371       .  S
C724        C725   1.405       .  A
C725        C726   1.393   1_545  A
C725        H729   1.084       .  S
C726        O730   1.372       .  S
O728        H732   0.992       .  S
O730        H731   0.992       .  S
C733        C734   1.405       .  A
C733        C738   1.411       .  A
C734        C735   1.401       .  A
C734        H739   1.083       .  S
C735        C736   1.411       .  A
C735        O740   1.372       .  S
C736        C737   1.404       .  A
C737        C738   1.397       .  A
C737        H741   1.083       .  S
C738        O742   1.372       .  S
O740        H744   0.992       .  S
O742        H743   0.992       .  S
C745        C746   1.406       .  A
C745        C750   1.410       .  A
C746        C747   1.399       .  A
C746        H751   1.084       .  S
C747        C748   1.409       .  A
C747        O752   1.372       .  S
C748        C749   1.405       .  A
C749        C750   1.401       .  A
C749        H753   1.084       .  S
C750        O754   1.371       .  S
O752        H756   0.992       .  S
O754        H755   0.992       .  S
C757        C758   1.409       .  A
C757        C762   1.412       .  A
C758        C759   1.407   1_565  A
C758        H763   1.083       .  S
C759        C760   1.409       .  A
C759        O764   1.371       .  S
C760        C761   1.403       .  A
C761        C762   1.394   1_545  A
C761        H765   1.084       .  S
C762        O766   1.372       .  S
O764        H768   0.992       .  S
O766        H767   0.992       .  S
C769        C770   1.405       .  A
C769        C774   1.411       .  A
C770        C771   1.400       .  A
C770        H775   1.083       .  S
C771        C772   1.411       .  A
C771        O776   1.372       .  S
C772        C773   1.405       .  A
C773        C774   1.400       .  A
C773        H777   1.083       .  S
C774        O778   1.371       .  S
O776        H780   0.992       .  S
O778        H779   0.992       .  S
C781        C782   1.407       .  A
C781        C786   1.414       .  A
C782        C783   1.403       .  A
C782        H787   1.083       .  S
C783        C784   1.408       .  A
C783        O788   1.371       .  S
C784        C785   1.401       .  A
C785        C786   1.398       .  A
C785        H789   1.084       .  S
C786        O790   1.372       .  S
O788        H792   0.992       .  S
O790        H791   0.992       .  S
C793        C794   1.407       .  A
C793        C798   1.411       .  A
C794        C795   1.405   1_554  A
C794        H799   1.083       .  S
C795        C796   1.411       .  A
C795        O800   1.371       .  S
C796        C797   1.404       .  A
C797        C798   1.395   1_556  A
C797        H801   1.084       .  S
C798        O802   1.372       .  S
O800        H804   0.992       .  S
O802        H803   0.992       .  S
C805        C806   1.406       .  A
C805        C810   1.409       .  A
C806        C807   1.398       .  A
C806        H811   1.083       .  S
C807        C808   1.410       .  A
C807        O812   1.372       .  S
C808        C809   1.406       .  A
C809        C810   1.401       .  A
C809        H813   1.083       .  S
C810        O814   1.372       .  S
O812        H816   0.992       .  S
O814        H815   0.992       .  S
C817        C818   1.404       .  A
C817        C822   1.412       .  A
C818        C819   1.392   1_655  A
C818        H823   1.084       .  S
C819        C820   1.410       .  A
C819        O824   1.372       .  S
C820        C821   1.406       .  A
C821        C822   1.407   1_455  A
C821        H825   1.083       .  S
C822        O826   1.371       .  S
O824        H828   0.992       .  S
O826        H827   0.992       .  S
C829        C830   1.403       .  A
C829        C834   1.410       .  A
C830        C831   1.398       .  A
C830        H835   1.084       .  S
C831        C832   1.410       .  A
C831        O836   1.372       .  S
C832        C833   1.404       .  A
C833        C834   1.401       .  A
C833        H837   1.084       .  S
C834        O838   1.372       .  S
O836        H840   0.992       .  S
O838        H839   0.992       .  S
C841        C842   1.404       .  A
C841        C846   1.413       .  A
C842        C843   1.400       .  A
C842        H847   1.083       .  S
C843        C844   1.413       .  A
C843        O848   1.371       .  S
C844        C845   1.404       .  A
C845        C846   1.400       .  A
C845        H849   1.083       .  S
C846        O850   1.372       .  S
O848        H852   0.992       .  S
O850        H851   0.992       .  S
C853        C854   1.405       .  A
C853        C858   1.413       .  A
C854        C855   1.400   1_455  A
C854        H859   1.083       .  S
C855        C856   1.410       .  A
C855        O860   1.372       .  S
C856        C857   1.403       .  A
C857        C858   1.400   1_655  A
C857        H861   1.084       .  S
C858        O862   1.372       .  S
O860        H864   0.992       .  S
O862        H863   0.992       .  S
C865        C866   1.402       .  A
C865        C870   1.409       .  A
C866        C867   1.397       .  A
C866        H871   1.084       .  S
C867        C868   1.412       .  A
C867        O872   1.372       .  S
C868        C869   1.407       .  A
C869        C870   1.403       .  A
C869        H873   1.083       .  S
C870        O874   1.371       .  S
O872        H876   0.992       .  S
O874        H875   0.992       .  S
C877        C878   1.407       .  A
C877        C882   1.411       .  A
C878        C879   1.403       .  A
C878        H883   1.083       .  S
C879        C880   1.410       .  A
C879        O884   1.371       .  S
C880        C881   1.404       .  A
C881        C882   1.397       .  A
C881        H885   1.084       .  S
C882        O886   1.372       .  S
O884        H888   0.992       .  S
O886        H887   0.992       .  S
