geometry optimzed in LAMMPS
_audit_creation_date              2020-11-30 
_audit_creation_method            'lammps2cif' 
_symmetry_space_group_name_H-M    'P1' 
_symmetry_Int_Tables_number       1 
_symmetry_cell_setting            triclinic 
loop_ 
_symmetry_equiv_pos_as_xyz 
  x,y,z 
_cell_length_a                    39.28543532140243 
_cell_length_b                    39.10013056002587 
_cell_length_c                    29.392405434377675 
_cell_angle_alpha                 88.51219871046288 
_cell_angle_beta                  94.82729484817702 
_cell_angle_gamma                 120.08812569753191 
loop_ 
_atom_site_label 
_atom_site_type_symbol 
_atom_site_fract_x 
_atom_site_fract_y 
_atom_site_fract_z 
_atom_site_charge 
O1          O  0.40179907  0.13706732  0.29956208    -0.80450
O2          O  0.30811053  0.18693380  0.41470264    -0.65140
O3          O  0.33463751  0.13555134  0.32672707    -1.11740
C4          C  0.37136282  0.25392999  0.24406435     1.06440
O5          O  0.27674733  0.20375038  0.36110570    -0.78350
O6          O  0.27454758  0.18573871  0.27447185    -0.65930
Ni7        Ni  0.36498544  0.11100284  0.34489149     1.34870
C8          C  0.27617316  0.16001012  0.25089513     0.85170
O9          O  0.29951509  0.11455774  0.41028457    -0.78890
O10         O  0.32954823  0.08155958  0.39045198    -0.89160
C11         C  0.28594318  0.20105413  0.40286909     0.84740
O12         O  0.40171041  0.15050565  0.38823115    -0.67370
O13         O  0.34614184  0.25622638  0.26648022    -0.86650
C14         C  0.40020418  0.17642900  0.41164983     0.85570
C15         C  0.30539182  0.08528206  0.41331175     1.07140
H16         H  0.36834358  0.22537787  0.34710754     0.38950
O17         O  0.34390183  0.20466166  0.33249758    -1.09310
O18         O  0.30681788  0.15690069  0.25078238    -0.65970
Ni19       Ni  0.35689860  0.17982482  0.28673085     1.26350
O20         O  0.37107727  0.18216364  0.40875137    -0.66190
O21         O  0.37880830  0.22562946  0.24800304    -0.78490
C22         C  0.39164117  0.13751816  0.25755845     0.84960
O23         O  0.37045756  0.15263582  0.24473744    -0.65660
Ni24       Ni  0.31239013  0.22795665  0.31414008     1.27450
Ni25       Ni  0.32160702  0.16025628  0.37222658     1.26060
H26         H  0.31001776  0.11492790  0.31215984     0.39500
C27         C  0.20425315  0.34281308  0.17772124     0.02720
C28         C  0.20355834  0.37870537  0.18128723     0.02720
C29         C  0.16671703  0.37805575  0.18380185     0.02720
C30         C  0.12966835  0.34080753  0.18426765     0.02720
C31         C  0.13155659  0.30514959  0.17869383     0.02720
C32         C  0.16829554  0.30625285  0.17602464     0.02720
O33         O  0.20707806  0.11584947  0.23607544    -0.73990
O34         O  0.11453310  0.06265501  0.15173223    -0.74020
O35         O  0.16345557  0.04130069  0.19815090    -0.74070
O36         O  0.15731113  0.13521206  0.19103611    -0.74120
O37         O  0.19824618  0.15730592  0.13546354    -0.74050
O38         O  0.19958419  0.05920035  0.13811633    -0.74030
O39         O  0.15375958  0.08542041  0.09448653    -0.74010
O40         O  0.24541821  0.13249348  0.17814225    -0.74070
Ni41       Ni  0.15926961  0.08784630  0.19636661     1.25410
Ni42       Ni  0.20064007  0.10917845  0.13444453     1.25360
C43         C  0.24129597  0.13414934  0.22052573     0.88190
C44         C  0.11930471  0.06663897  0.10888713     0.88120
C45         C  0.18142099  0.03407361  0.16884786     0.88150
C46         C  0.17750930  0.16221498  0.16337102     0.88320
O47         O  0.44856512  0.40916160  0.14572623    -0.73990
O48         O  0.41008430  0.32215132  0.22806213    -0.74020
O49         O  0.47868125  0.36651729  0.18732540    -0.74070
O50         O  0.38140578  0.36567522  0.18667351    -0.74120
O51         O  0.35496040  0.32017821  0.13068648    -0.74050
O52         O  0.45619588  0.32685105  0.12603405    -0.74030
O53         O  0.38895661  0.27939454  0.16941355    -0.74010
O54         O  0.42036806  0.36633854  0.08697876    -0.74070
Ni55       Ni  0.43072422  0.36731142  0.18899866     1.25410
Ni56       Ni  0.40444843  0.32162632  0.12604872     1.25360
C57         C  0.43887117  0.40184664  0.10292358     0.88190
C58         C  0.39217597  0.28649923  0.21235750     0.88120
C59         C  0.48424717  0.34772346  0.15653163     0.88150
C60         C  0.35183849  0.34234559  0.15959072     0.88320
O61         O  0.39744410  0.12292110  0.18137255    -0.73990
O62         O  0.42602404  0.07097613  0.09608078    -0.74020
O63         O  0.36114170  0.05053738  0.14048667    -0.74070
O64         O  0.46285025  0.14389894  0.13774058    -0.74120
O65         O  0.48665568  0.12157395  0.19498259    -0.74050
O66         O  0.38585198  0.02785858  0.19640853    -0.74030
O67         O  0.45171001  0.05002384  0.15323885    -0.74010
O68         O  0.42110140  0.10008987  0.23855500    -0.74070
Ni69       Ni  0.41116636  0.09793692  0.13673622     1.25410
Ni70       Ni  0.43714310  0.07408963  0.19783802     1.25360
C71         C  0.40435972  0.11975410  0.22413897     0.88190
C72         C  0.44308451  0.05170331  0.11063083     0.88120
C73         C  0.35666286  0.02367934  0.16923702     0.88150
C74         C  0.49134875  0.14864957  0.16660625     0.88320
O75         O  0.42988707  0.20042473  0.48636088    -0.73990
O76         O  0.02209208  0.26153299  0.56881515    -0.74020
O77         O  0.46706788  0.27393243  0.52371498    -0.74070
O78         O  0.48343093  0.18606051  0.53231814    -0.74120
O79         O  0.02081111  0.20692984  0.47373580    -0.74050
O80         O  0.00562694  0.29702788  0.46615372    -0.74030
O81         O  0.05945799  0.28163110  0.50983393    -0.74010
O82         O  0.46785010  0.22232481  0.42790819    -0.74070
Ni83       Ni  0.47437432  0.22963839  0.52992256     1.25410
Ni84       Ni  0.01470237  0.25277244  0.46720229     1.25360
C85         C  0.43414051  0.20111555  0.44352980     0.88190
C86         C  0.05577833  0.28242663  0.55248344     0.88120
C87         C  0.48485303  0.30090096  0.49502581     0.88150
C88         C  0.50369729  0.18100035  0.50412590     0.88320
O89         O  0.28608337  0.05931197  0.48688597    -0.73990
O90         O  0.23279791  0.47035401  0.56484897    -0.74020
O91         O  0.30555829  0.00893400  0.53069352    -0.74070
O92         O  0.21476286  0.02137068  0.52168029    -0.74120
O93         O  0.18949027  0.48073064  0.46141123    -0.74050
O94         O  0.28148160  0.46845015  0.46975539    -0.74030
O95         O  0.20892877  0.42946191  0.50422136    -0.74010
O96         O  0.26149399  0.01810437  0.42646937    -0.74070
Ni97       Ni  0.26073173  0.01635664  0.52817930     1.25410
Ni98       Ni  0.23441309  0.47270855  0.46328708     1.25360
C99         C  0.28278246  0.05295058  0.44377001     0.88190
C100        C  0.21134119  0.43547159  0.54727077     0.88120
C101        C  0.30922911  0.48773194  0.50112242     0.88150
C102        C  0.18655292  0.50266829  0.49089938     0.88320
C103        C  0.03493903  0.48981964  0.51514199     0.02720
C104        C  0.49686424  0.45460088  0.51030102     0.02720
C105        C  0.46116851  0.45605838  0.50964584     0.02720
C106        C  0.46225716  0.49293171  0.51144564     0.02720
C107        C  0.49967379  0.02865567  0.51268731     0.02720
C108        C  0.03575854  0.02720130  0.51427103     0.02720
O109        O  0.25083741  0.23194825  0.42366099    -0.73990
O110        O  0.21325151  0.27376054  0.51054815    -0.74020
O111        O  0.28061623  0.30258534  0.46797471    -0.74070
O112        O  0.18365718  0.20296466  0.46695910    -0.74120
O113        O  0.21042546  0.18309628  0.52414119    -0.74050
O114        O  0.30694963  0.28094849  0.52346913    -0.74030
O115        O  0.24066567  0.25385723  0.56689837    -0.74010
O116        O  0.27695724  0.21056801  0.47983869    -0.74070
Ni117      Ni  0.23115236  0.25351211  0.46513024     1.25410
Ni118      Ni  0.25964759  0.23133584  0.52553180     1.25360
C119        C  0.27020537  0.21471194  0.43725082     0.88190
C120        C  0.22097052  0.27076305  0.55313228     0.88120
C121        C  0.30963635  0.30821936  0.49647406     0.88150
C122        C  0.18110077  0.17704002  0.49620877     0.88320
O123        O  0.40094861  0.42905950  0.95827321    -0.80450
O124        O  0.05060838  0.02719943  0.08514133    -0.65140
O125        O  0.46675059  0.49837529  0.99130520    -1.11740
C126        C  0.04228762  0.45778922  0.91327230     1.06440
O127        O  0.09226766  0.05848968  0.03312632    -0.78350
O128        O  0.07480127  0.05543191  0.94364569    -0.65930
Ni129      Ni  0.41308806  0.46798013  0.00446452     1.34870
C130        C  0.04583847  0.05373334  0.91909918     0.85170
O131        O  0.48547489  0.03425309  0.07842669    -0.78890
O132        O  0.42154445  0.00563135  0.05094003    -0.89160
C133        C  0.08559124  0.04965493  0.07447265     0.84740
O134        O  0.41805728  0.43318562  0.04784870    -0.67370
O135        O  0.07159561  0.48263170  0.93936500    -0.86650
C136        C  0.44701203  0.43455433  0.07200679     0.85570
C137        C  0.45076449  0.02938774  0.07796364     1.07140
H138        H  0.02359067  0.46523000  0.01230431     0.38950
O139        O  0.02660757  0.48950697  0.99946159    -1.09310
O140        O  0.01099744  0.02443237  0.91865689    -0.65970
Ni141      Ni  0.48605956  0.47533614  0.95102997     1.26350
O142        O  0.48212208  0.46310847  0.07163639    -0.66190
O143        O  0.00746066  0.45262111  0.91288943    -0.78490
C144        C  0.40758804  0.43724074  0.91682306     0.84960
O145        O  0.44246898  0.45990090  0.90596877    -0.65660
Ni146      Ni  0.08013356  0.02014993  0.98618335     1.27450
Ni147      Ni  0.00718109  0.01225887  0.03986791     1.26060
H148        H  0.46999200  0.02273561  0.97843991     0.39500
O149        O  0.21615488  0.28413793  0.62900089    -0.80450
O150        O  0.12544850  0.33597990  0.74719340    -0.65140
O151        O  0.14940279  0.28301485  0.65817598    -1.11740
C152        C  0.18773385  0.40242539  0.57707317     1.06440
O153        O  0.09300343  0.35117163  0.69336212    -0.78350
O154        O  0.08997194  0.33520754  0.60553668    -0.65930
Ni155      Ni  0.18034255  0.25896073  0.67542229     1.34870
C156        C  0.09083857  0.30871467  0.58251744     0.85170
O157        O  0.11639672  0.26297806  0.74357828    -0.78890
O158        O  0.14626478  0.23022881  0.72247144    -0.89160
C159        C  0.10386899  0.35074065  0.73514108     0.84740
O160        O  0.21834373  0.29985218  0.71633563    -0.67370
O161        O  0.16285399  0.40552036  0.59939750    -0.86650
C162        C  0.21780336  0.32641352  0.73943875     0.85570
C163        C  0.12249149  0.23377665  0.74626439     1.07140
H164        H  0.18401340  0.37307416  0.67796366     0.38950
O165        O  0.15922624  0.35231869  0.66396972    -1.09310
O166        O  0.12092025  0.30459515  0.58298422    -0.65970
Ni167      Ni  0.17129494  0.32712933  0.61806256     1.26350
O168        O  0.18813985  0.33115201  0.73893318    -0.66190
O169        O  0.19338450  0.37295399  0.57984824    -0.78490
C170        C  0.20616926  0.28567046  0.58725299     0.84960
O171        O  0.18405566  0.29988192  0.57532771    -0.65660
Ni172      Ni  0.12834736  0.37637984  0.64639745     1.27450
Ni173      Ni  0.13763981  0.30836808  0.70441491     1.26060
H174        H  0.12456909  0.26236696  0.64412987     0.39500
O175        O  0.24825827  0.35096214  0.81281912    -0.73990
O176        O  0.33944013  0.40056702  0.89671472    -0.74020
O177        O  0.29141080  0.42365161  0.85264534    -0.74070
O178        O  0.29727095  0.32892191  0.85598856    -0.74120
O179        O  0.33653492  0.35092649  0.79859387    -0.74050
O180        O  0.33027331  0.44455316  0.79546300    -0.74030
O181        O  0.37893673  0.42270507  0.83967794    -0.74010
O182        O  0.28674402  0.37091089  0.75478720    -0.74070
Ni183      Ni  0.29269192  0.37535182  0.85657732     1.25410
Ni184      Ni  0.33439125  0.39815959  0.79491260     1.25360
C185        C  0.25256815  0.35125687  0.77023725     0.88190
C186        C  0.37396299  0.41934982  0.88244969     0.88120
C187        C  0.31096233  0.45043852  0.82419623     0.88150
C188        C  0.31793383  0.32460823  0.82761925     0.88320
C189        C  0.28927473  0.14415772  0.82760640     0.02720
C190        C  0.32588617  0.18034761  0.82776039     0.02720
C191        C  0.36212355  0.18002686  0.82787313     0.02720
C192        C  0.36184154  0.14318589  0.82912563     0.02720
C193        C  0.32489937  0.10681303  0.82905924     0.02720
C194        C  0.28873621  0.10744904  0.82754170     0.02720
O195        O  0.04325513  0.07947248  0.84567806    -0.73990
O196        O  0.08375797  0.16595517  0.76288394    -0.74020
O197        O  0.11086263  0.12153899  0.80540431    -0.74070
O198        O  0.01509412  0.12386799  0.80339223    -0.74120
O199        O  0.03886851  0.16347844  0.86525296    -0.74050
O200        O  0.13793780  0.16830354  0.85957850    -0.74030
O201        O  0.10495900  0.20923821  0.82105064    -0.74010
O202        O  0.07313234  0.12242500  0.90406203    -0.74070
Ni203      Ni  0.06213146  0.12121136  0.80221343     1.25410
Ni204      Ni  0.08938935  0.16737359  0.86474397     1.25360
C205        C  0.05378559  0.08676108  0.88834201     0.88190
C206        C  0.10177203  0.20168119  0.77824068     0.88120
C207        C  0.14069479  0.14517465  0.83199098     0.88150
C208        C  0.01106489  0.14365005  0.83435561     0.88320
O209        O  0.07243171  0.38563840  0.75463303    -0.73990
O210        O  0.04104157  0.43539950  0.83879858    -0.74020
O211        O  0.10666618  0.45838248  0.79433576    -0.74070
O212        O  0.00779223  0.36243208  0.80025349    -0.74120
O213        O  0.03476195  0.34284228  0.85671228    -0.74050
O214        O  0.13227869  0.43794890  0.85221748    -0.74030
O215        O  0.06779661  0.41616158  0.89659642    -0.74010
O216        O  0.09935973  0.36600929  0.81180466    -0.74070
Ni217      Ni  0.05600891  0.41115979  0.79491135     1.25410
Ni218      Ni  0.08431244  0.38997316  0.85648321     1.25360
C219        C  0.09102297  0.36784660  0.76902973     0.88190
C220        C  0.05009696  0.43477035  0.88145568     0.88120
C221        C  0.13557597  0.46379322  0.82284968     0.88150
C222        C  0.00526142  0.33609124  0.82881926     0.88320
C223        C  0.40038025  0.14279204  0.83039902    -0.04900
C224        C  0.41434687  0.12982233  0.86967458    -0.02020
C225        C  0.45050273  0.13014336  0.87092016     0.02970
C226        C  0.47366688  0.14398414  0.83362477    -0.04900
C227        C  0.46084755  0.15752894  0.79493043    -0.02010
C228        C  0.42432150  0.15638408  0.79283722     0.02970
C229        C  0.39427845  0.11902607  0.91108741     0.37620
C230        C  0.48595193  0.17358565  0.75728548     0.37610
C231        C  0.41164825  0.16719253  0.75011156     0.36030
C232        C  0.96393741  0.11592412  0.91076967     0.36030
N233        N  0.40420597  0.17463860  0.71361123    -0.38790
N234        N  0.97464550  0.10463843  0.94249060    -0.38790
N235        N  0.50602397  0.18654426  0.72746846    -0.38230
N236        N  0.38236787  0.11215669  0.94684306    -0.38230
C237        C  0.17884572  0.14562438  0.83065294    -0.04900
C238        C  0.20687798  0.15875125  0.86901158    -0.02020
C239        C  0.24255121  0.15848330  0.86782401     0.02970
C240        C  0.25106125  0.14481616  0.82840920    -0.04900
C241        C  0.22283343  0.13182234  0.79001492    -0.02010
C242        C  0.18738867  0.13253466  0.79098248     0.02970
C243        C  0.19890776  0.17147147  0.91094466     0.37620
C244        C  0.22986373  0.11933716  0.74764515     0.37610
C245        C  0.16038658  0.12073277  0.74986479     0.36030
C246        C  0.26863709  0.16997985  0.90926376     0.36030
N247        N  0.13909329  0.11114904  0.71703068    -0.38790
N248        N  0.28639046  0.17795828  0.94458489    -0.38790
N249        N  0.23261531  0.11029093  0.71156435    -0.38230
N250        N  0.19293640  0.18177329  0.94442743    -0.38230
C251        C  0.24958778  0.06935808  0.82643202    -0.04900
C252        C  0.23359551  0.04481731  0.78640979    -0.02020
C253        C  0.19562233  0.01104159  0.78468496     0.02970
C254        C  0.17372556  0.00063492  0.82305440    -0.04900
C255        C  0.18968290  0.02367785  0.86335849    -0.02010
C256        C  0.22693448  0.05809629  0.86493174     0.02970
C257        C  0.25408167  0.05447949  0.74527857     0.37620
C258        C  0.16797247  0.01165258  0.90398386     0.37610
C259        C  0.24149286  0.08009280  0.90769314     0.36030
C260        C  0.17940386  0.48615095  0.74368791     0.36030
N261        N  0.25047519  0.09426913  0.94394314    -0.38790
N262        N  0.16650994  0.46632292  0.71107263    -0.38790
N263        N  0.15162735  0.00230480  0.93698326    -0.38230
N264        N  0.26690273  0.06028498  0.71004696    -0.38230
C265        C  0.40037766  0.21904429  0.82708580    -0.04900
C266        C  0.40804592  0.24387421  0.78866632    -0.02020
C267        C  0.44111363  0.28234242  0.78979380     0.02970
C268        C  0.46841522  0.29653609  0.82882880    -0.04900
C269        C  0.46150571  0.27142214  0.86684765    -0.02010
C270        C  0.42799475  0.23322724  0.86590263     0.02970
C271        C  0.38400540  0.22987256  0.74589178     0.37620
C272        C  0.98805032  0.28482587  0.90833749     0.37610
C273        C  0.42159680  0.21059445  0.90718346     0.36030
C274        C  0.44698462  0.30660043  0.74957176     0.36030
N275        N  0.41890746  0.19645193  0.94271161    -0.38790
N276        N  0.45118846  0.32565818  0.71744862    -0.38790
N277        N  0.00904665  0.29502605  0.94142116    -0.38230
N278        N  0.36817359  0.22110182  0.70955604    -0.38230
C279        C  0.32332219  0.06735595  0.82902684    -0.04900
C280        C  0.31167067  0.04230354  0.86738062    -0.02020
C281        C  0.30798134  0.00451616  0.86610580     0.02970
C282        C  0.31296889  0.48963552  0.82539337    -0.04900
C283        C  0.32292033  0.51386261  0.78657677    -0.02010
C284        C  0.33025429  0.05295478  0.78916614     0.02970
C285        C  0.30511220  0.05501547  0.90986700     0.37620
C286        C  0.32400526  0.49826036  0.74274477     0.37610
C287        C  0.34270877  0.07665732  0.74882996     0.36030
C288        C  0.30033116  0.98178450  0.90776118     0.36030
N289        N  0.35097130  0.09204231  0.71410498    -0.38790
N290        N  0.29437582  0.96400499  0.94112957    -0.38790
N291        N  0.32473721  0.48595648  0.70771095    -0.38230
N292        N  0.30067492  0.06248077  0.94594618    -0.38230
C293        C  0.32043103  0.28849619  0.82777570    -0.04900
C294        C  0.33696469  0.27888282  0.86659763    -0.02020
C295        C  0.34035232  0.24471766  0.86627440     0.02970
C296        C  0.32581295  0.21895098  0.82726664    -0.04900
C297        C  0.30985774  0.22976700  0.78801839    -0.02010
C298        C  0.30803777  0.26471785  0.78812025     0.02970
C299        C  0.35157497  0.30498852  0.90663094     0.37620
C300        C  0.29675363  0.20686209  0.74590178     0.37610
C301        C  0.29376918  0.27648014  0.74680240     0.36030
C302        C  0.35711014  0.23629434  0.90769598     0.36030
N303        N  0.28307165  0.28572788  0.71335538    -0.38790
N304        N  0.36953000  0.23192607  0.94308674    -0.38790
N305        N  0.28703824  0.19198429  0.71001333    -0.38230
N306        N  0.36323390  0.32581203  0.93842715    -0.38230
C307        C  0.14340152  0.13968795  0.49948231    -0.04900
C308        C  0.12848369  0.11079807  0.46440011    -0.02020
C309        C  0.09442166  0.07373436  0.46987203     0.02970
C310        C  0.07417010  0.06557356  0.51015217    -0.04900
C311        C  0.09047825  0.09455870  0.54584197    -0.02010
C312        C  0.12434652  0.13150436  0.54011071     0.02970
C313        C  0.14899743  0.11885459  0.42317366     0.37620
C314        C  0.07610959  0.08556611  0.59077620     0.37610
C315        C  0.13985812  0.16127134  0.57652298     0.36030
C316        C  0.08138666  0.04380871  0.43432532     0.36030
N317        N  0.15201782  0.18479824  0.60566277    -0.38790
N318        N  0.07205597  0.02062335  0.40533258    -0.38790
N319        N  0.06798703  0.08007740  0.62823930    -0.38230
N320        N  0.16540013  0.12535803  0.39032897    -0.38230
C321        C  0.42173905  0.41803156  0.50597134    -0.04900
C322        C  0.40472820  0.39695998  0.54560105    -0.02020
C323        C  0.36693275  0.36298247  0.54234470     0.02970
C324        C  0.34711460  0.34686734  0.49927647    -0.04900
C325        C  0.36444398  0.36659610  0.45951049    -0.02010
C326        C  0.40108329  0.40230300  0.46278420     0.02970
C327        C  0.42582114  0.40835320  0.59030201     0.37620
C328        C  0.34532898  0.34923640  0.41499976     0.37610
C329        C  0.41758409  0.42132142  0.42095761     0.36030
C330        C  0.34794908  0.34519773  0.58384390     0.36030
N331        N  0.42891010  0.43452580  0.38602562    -0.38790
N332        N  0.33278712  0.33124914  0.61688884    -0.38790
N333        N  0.32989188  0.33504875  0.37970829    -0.38230
N334        N  0.44032946  0.41494719  0.62733810    -0.38230
C335        C  0.34703121  0.48695448  0.50292365    -0.04900
C336        C  0.36856567  0.49576269  0.46412614    -0.02020
C337        C  0.40611907  0.49856039  0.46695415     0.02970
C338        C  0.42343325  0.49333080  0.50912044    -0.04900
C339        C  0.40130201  0.48466434  0.54802306    -0.02010
C340        C  0.36327148  0.48059174  0.54450890     0.02970
C341        C  0.35223551  0.50272951  0.42111731     0.37620
C342        C  0.41683296  0.48068966  0.59283136     0.37610
C343        C  0.33971985  0.46791307  0.58355756     0.36030
C344        C  0.42574157  0.50617092  0.42539832     0.36030
N345        N  0.32046146  0.95721847  0.61422201    -0.38790
N346        N  0.43871263  0.51176887  0.39029003    -0.38790
N347        N  0.42639840  0.47763773  0.63032912    -0.38230
N348        N  0.33887281  0.50814641  0.38700513    -0.38230
C349        C  0.14874568  0.50349579  0.49334194    -0.04900
C350        C  0.11266404  0.47318393  0.47189383    -0.02020
C351        C  0.07845192  0.46001712  0.49474354     0.02970
C352        C  0.07382661  0.48832491  0.51831463    -0.04900
C353        C  0.10888214  0.01738534  0.54224388    -0.02010
C354        C  0.14607356  0.02715158  0.52748842     0.02970
C355        C  0.11130247  0.44736317  0.43641435     0.37620
C356        C  0.10734723  0.02764577  0.58852912     0.37610
C357        C  0.18085238  0.06226609  0.54678007     0.36030
C358        C  0.07419671  0.42697677  0.52225559     0.36030
N359        N  0.20845880  0.09068339  0.56168077    -0.38790
N360        N  0.07386493  0.40197255  0.54456120    -0.38790
N361        N  0.10761498  0.03429632  0.62672625    -0.38230
N362        N  0.10966075  0.42612724  0.40849445    -0.38230
C363        C  0.50577386  0.14367336  0.50647605    -0.04900
C364        C  0.50108234  0.12352518  0.54821126    -0.02020
C365        C  0.49686971  0.08548049  0.54966153     0.02970
C366        C  0.50121515  0.06818353  0.51038525    -0.04900
C367        C  0.00894283  0.08980776  0.46933308    -0.02010
C368        C  0.00956815  0.12632676  0.46693970     0.02970
C369        C  0.50210446  0.14246420  0.59066175     0.37620
C370        C  0.01633446  0.07504356  0.42884652     0.37610
C371        C  0.01265769  0.14507676  0.42302926     0.36030
C372        C  0.49040481  0.06607785  0.59316553     0.36030
N373        N  0.01488456  0.15989822  0.38796753    -0.38790
N374        N  0.48695653  0.05416815  0.62991871    -0.38790
N375        N  0.02236985  0.06475255  0.39541568    -0.38230
N376        N  0.50308285  0.15748516  0.62454347    -0.38230
C377        C  0.49289249  0.41474891  0.50591927    -0.04900
C378        C  0.49185867  0.39316312  0.54538384    -0.02020
C379        C  0.48516478  0.35437949  0.54151649     0.02970
C380        C  0.48352197  0.33824292  0.49798615    -0.04900
C381        C  0.48567169  0.36045377  0.45852850    -0.02010
C382        C  0.49062915  0.39858813  0.46251495     0.02970
C383        C  0.50658703  0.41387558  0.58921769     0.37620
C384        C  0.98305255  0.34433942  0.41358954     0.37610
C385        C  0.99867727  0.42292089  0.42243190     0.36030
C386        C  0.48443071  0.33327240  0.58317675     0.36030
N387        N  0.00584265  0.44161837  0.38977348    -0.38790
N388        N  0.48387079  0.31665280  0.61652642    -0.38790
N389        N  0.98104306  0.33163746  0.37769814    -0.38230
N390        N  0.51987797  0.43067727  0.62382266    -0.38230
C391        C  0.17695970  0.19978992  0.16543617    -0.04900
C392        C  0.18091044  0.21723739  0.20837738    -0.02020
C393        C  0.17571834  0.25013936  0.21179977     0.02970
C394        C  0.16950119  0.26828413  0.17208403    -0.04900
C395        C  0.16547943  0.25046025  0.12891887    -0.02010
C396        C  0.16893336  0.21629521  0.12576083     0.02970
C397        C  0.19070927  0.20148874  0.24963556     0.37620
C398        C  0.15617637  0.26549803  0.08719861     0.37610
C399        C  0.16232841  0.19696422  0.08174367     0.36030
C400        C  0.17478704  0.26308859  0.25702721     0.36030
N401        N  0.15685040  0.18140245  0.04673087    -0.38790
N402        N  0.17395264  0.27070755  0.29454281    -0.38790
N403        N  0.14849264  0.27525323  0.05218982    -0.38230
N404        N  0.19838665  0.18911188  0.28265018    -0.38230
C405        C  0.16816065  0.41749340  0.18084203    -0.04900
C406        C  0.15466960  0.42860670  0.13993771    -0.02020
C407        C  0.16094837  0.46741127  0.13494815     0.02970
C408        C  0.18006753  0.49540123  0.17105997    -0.04900
C409        C  0.19248883  0.48420624  0.21226968    -0.02010
C410        C  0.18561377  0.44535598  0.21761393     0.02970
C411        C  0.13250417  0.39976139  0.10355459     0.37620
C412        C  0.21231392  0.01285041  0.24963783     0.37610
C413        C  0.19143076  0.43316418  0.26306108     0.36030
C414        C  0.14628350  0.47807440  0.09320542     0.36030
N415        N  0.19413788  0.42459894  0.30062527    -0.38790
N416        N  0.13455850  0.48654212  0.05991196    -0.38790
N417        N  0.22820110  0.03568447  0.27935595    -0.38230
N418        N  0.11445745  0.37737813  0.07400081    -0.38230
C419        C  0.02958872  0.18693481  0.16874657    -0.04900
C420        C  0.05148642  0.20278030  0.21139556    -0.01870
C421        C  0.08317008  0.24206076  0.21479569     0.02970
C422        C  0.09543495  0.26499531  0.17536308    -0.04900
C423        C  0.07398841  0.24924001  0.13280747    -0.02010
C424        C  0.04189273  0.21021631  0.12928857     0.02970
C425        C  0.03993286  0.18021910  0.25286588     0.37620
C426        C  0.08152396  0.27456029  0.09363290     0.37610
C427        C  0.52185875  0.19416617  0.08463592     0.36030
C428        C  0.09671574  0.26168090  0.25928497     0.36030
N429        N  0.50600328  0.18146591  0.04898099    -0.38790
N430        N  0.10568142  0.27758197  0.29459282    -0.38790
N431        N  0.08611165  0.29403722  0.06187036    -0.38230
N432        N  0.03095341  0.16225020  0.28597515    -0.38230
C433        C  0.24199727  0.41747694  0.17873677    -0.04900
C434        C  0.26877152  0.43475465  0.21793533    -0.02020
C435        C  0.30531678  0.46980262  0.21476916     0.02970
C436        C  0.31701612  0.48745106  0.17210061    -0.04900
C437        C  0.29049541  0.47049679  0.13285225    -0.02010
C438        C  0.25286350  0.43667725  0.13643059     0.02970
C439        C  0.25931529  0.41834966  0.26275255     0.37620
C440        C  0.30228855  0.48676465  0.08815842     0.37610
C441        C  0.22551797  0.42244988  0.09603730     0.36030
C442        C  0.33048067  0.48837811  0.25624775     0.36030
N443        N  0.20487276  0.41270416  0.06270497    -0.38790
N444        N  0.35074658  0.50332017  0.28904871    -0.38790
N445        N  0.31166699  0.99951633  0.05244808    -0.38230
N446        N  0.25459220  0.40855149  0.30027247    -0.38230
C447        C  0.08954711  0.33959250  0.18708798    -0.04900
C448        C  0.05233194  0.30706177  0.17203938    -0.02020
C449        C  0.02434149  0.31426206  0.14761055     0.02970
C450        C  0.02295109  0.34835122  0.15947745    -0.04900
C451        C  0.05602520  0.37812898  0.18629593    -0.02010
C452        C  0.08676246  0.37147908  0.20403963     0.02970
C453        C  0.03290258  0.27815915  0.20664448     0.37620
C454        C  0.05872772  0.41549105  0.19679299     0.37610
C455        C  0.10163541  0.38448193  0.25062443     0.36030
C456        C  0.49163314  0.28152268  0.12179547     0.36030
N457        N  0.10997076  0.39339358  0.28890811    -0.38790
N458        N  0.46565480  0.25504324  0.10149338    -0.38790
N459        N  0.06123135  0.44553087  0.20481243    -0.38230
N460        N  0.01568185  0.25590722  0.23430298    -0.38230
C461        C  0.24271329  0.34318255  0.17291747    -0.04900
C462        C  0.26569327  0.34114141  0.21174081    -0.02020
C463        C  0.30105181  0.34097328  0.20698957     0.02970
C464        C  0.31353234  0.34095586  0.16339465    -0.04900
C465        C  0.29031789  0.34147449  0.12444604    -0.02010
C466        C  0.25578413  0.34355848  0.12912936     0.02970
C467        C  0.25395666  0.33848845  0.25748936     0.37620
C468        C  0.30255865  0.34104021  0.07929806     0.37610
C469        C  0.23456158  0.34650469  0.08805985     0.36030
C470        C  0.32441021  0.33995867  0.24759393     0.36030
N471        N  0.21951469  0.34888725  0.05352988    -0.38790
N472        N  0.34342215  0.33959706  0.27967624    -0.38790
N473        N  0.31216005  0.34045926  0.04329296    -0.38230
N474        N  0.24800689  0.33613738  0.29564736    -0.38230
O475        O  0.40179892  0.63706719  0.29956206    -0.80450
O476        O  0.30811045  0.68693374  0.41470262    -0.65140
O477        O  0.33463736  0.63555120  0.32672710    -1.11740
C478        C  0.37136256  0.75392970  0.24406416     1.06440
O479        O  0.27674721  0.70375028  0.36110567    -0.78350
O480        O  0.27454737  0.68573848  0.27447183    -0.65930
Ni481      Ni  0.36498534  0.61100275  0.34489152     1.34870
C482        C  0.27617293  0.66000988  0.25089513     0.85170
O483        O  0.29951503  0.61455768  0.41028464    -0.78890
O484        O  0.32954816  0.58155952  0.39045205    -0.89160
C485        C  0.28594309  0.70105406  0.40286906     0.84740
O486        O  0.40171033  0.65050560  0.38823113    -0.67370
O487        O  0.34614160  0.75622614  0.26648004    -0.86650
C488        C  0.40020411  0.67642896  0.41164979     0.85570
C489        C  0.30539176  0.58528200  0.41331182     1.07140
H490        H  0.36834343  0.72537775  0.34710743     0.38950
O491        O  0.34390167  0.70466151  0.33249751    -1.09310
O492        O  0.30681765  0.65690044  0.25078239    -0.65970
Ni493      Ni  0.35689839  0.67982462  0.28673081     1.26350
O494        O  0.37107720  0.68216359  0.40875133    -0.66190
O495        O  0.37880805  0.72562919  0.24800293    -0.78490
C496        C  0.39164099  0.63751801  0.25755843     0.84960
O497        O  0.37045731  0.65263560  0.24473744    -0.65660
Ni498      Ni  0.31238995  0.72795648  0.31413998     1.27450
Ni499      Ni  0.32160691  0.66025619  0.37222659     1.26060
H500        H  0.31001760  0.61492773  0.31215991     0.39500
C501        C  0.20425318  0.84281308  0.17772142     0.02720
C502        C  0.20355845  0.87870541  0.18128735     0.02720
C503        C  0.16671719  0.87805589  0.18380192     0.02720
C504        C  0.12966842  0.84080774  0.18426787     0.02720
C505        C  0.13155659  0.80514971  0.17869409     0.02720
C506        C  0.16829552  0.80625289  0.17602487     0.02720
O507        O  0.20707782  0.61584928  0.23607541    -0.73990
O508        O  0.11453290  0.56265509  0.15173211    -0.74020
O509        O  0.16345518  0.54130053  0.19815075    -0.74070
O510        O  0.15731104  0.63521207  0.19103609    -0.74120
O511        O  0.19824609  0.65730588  0.13546352    -0.74050
O512        O  0.19958383  0.55920015  0.13811621    -0.74030
O513        O  0.15375942  0.58542043  0.09448644    -0.74010
O514        O  0.24541799  0.63249326  0.17814223    -0.74070
Ni515      Ni  0.15926938  0.58784623  0.19636653     1.25410
Ni516      Ni  0.20063986  0.60917835  0.13444447     1.25360
C517        C  0.24129574  0.63414911  0.22052571     0.88190
C518        C  0.11930455  0.56663906  0.10888702     0.88120
C519        C  0.18142053  0.53407339  0.16884768     0.88150
C520        C  0.17750923  0.66221498  0.16337100     0.88320
O521        O  0.44856526  0.90916124  0.14572602    -0.73990
O522        O  0.41008420  0.82215097  0.22806187    -0.74020
O523        O  0.47868110  0.86651662  0.18732494    -0.74070
O524        O  0.38140593  0.86567514  0.18667339    -0.74120
O525        O  0.35496027  0.82017810  0.13068643    -0.74050
O526        O  0.45619543  0.82685033  0.12603356    -0.74030
O527        O  0.38895623  0.77939415  0.16941330    -0.74010
O528        O  0.42036790  0.86633822  0.08697854    -0.74070
Ni529      Ni  0.43072424  0.86731105  0.18899840     1.25410
Ni530      Ni  0.40444814  0.82162594  0.12604846     1.25360
C531        C  0.43887119  0.90184632  0.10292339     0.88190
C532        C  0.39217571  0.78649887  0.21235726     0.88120
C533        C  0.48424680  0.84772268  0.15653108     0.88150
C534        C  0.35183854  0.84234557  0.15959070     0.88320
O535        O  0.39744390  0.62292104  0.18137253    -0.73990
O536        O  0.42602386  0.57097623  0.09608060    -0.74020
O537        O  0.36114153  0.55053737  0.14048660    -0.74070
O538        O  0.46285002  0.64389902  0.13774049    -0.74120
O539        O  0.48665552  0.62157403  0.19498239    -0.74050
O540        O  0.38585189  0.52785858  0.19640837    -0.74030
O541        O  0.45170989  0.55002395  0.15323859    -0.74010
O542        O  0.42110128  0.60008982  0.23855490    -0.74070
Ni543      Ni  0.41116616  0.59793695  0.13673613     1.25410
Ni544      Ni  0.43714298  0.57408966  0.19783784     1.25360
C545        C  0.40435955  0.61975402  0.22413893     0.88190
C546        C  0.44308437  0.55170343  0.11063059     0.88120
C547        C  0.35666272  0.52367933  0.16923692     0.88150
C548        C  0.49134855  0.64864968  0.16660613     0.88320
O549        O  0.42988703  0.70042472  0.48636083    -0.73990
O550        O  0.02209207  0.76153299  0.56881506    -0.74020
O551        O  0.46706785  0.77393242  0.52371491    -0.74070
O552        O  0.48343091  0.68606051  0.53231806    -0.74120
O553        O  0.02081108  0.70692983  0.47373570    -0.74050
O554        O  0.00562689  0.79702786  0.46615363    -0.74030
O555        O  0.05945797  0.78163110  0.50983383    -0.74010
O556        O  0.46785005  0.72232478  0.42790811    -0.74070
Ni557      Ni  0.47437430  0.72963839  0.52992249     1.25410
Ni558      Ni  0.01470233  0.75277242  0.46720220     1.25360
C559        C  0.43414046  0.70111553  0.44352974     0.88190
C560        C  0.05577832  0.78242663  0.55248334     0.88120
C561        C  0.48485299  0.80090095  0.49502572     0.88150
C562        C  0.50369727  0.68100035  0.50412582     0.88320
O563        O  0.28608332  0.55931192  0.48688603    -0.73990
O564        O  0.23279790  0.97035407  0.56484890    -0.74020
O565        O  0.30555828  0.50893396  0.53069356    -0.74070
O566        O  0.21476282  0.52137059  0.52168036    -0.74120
O567        O  0.18949030  0.98073072  0.46141117    -0.74050
O568        O  0.28148161  0.96845020  0.46975535    -0.74030
O569        O  0.20892877  0.92946197  0.50422129    -0.74010
O570        O  0.26149395  0.51810431  0.42646944    -0.74070
Ni571      Ni  0.26073171  0.51635658  0.52817936     1.25410
Ni572      Ni  0.23441311  0.97270862  0.46328702     1.25360
C573        C  0.28278241  0.55295052  0.44377008     0.88190
C574        C  0.21134118  0.93547165  0.54727070     0.88120
C575        C  0.30922911  0.98773197  0.50112239     0.88150
C576        C  0.18655296  0.00266838  0.49089931     0.88320
C577        C  0.03493901  0.98981963  0.51514186     0.02720
C578        C  0.49686422  0.95460088  0.51030089     0.02720
C579        C  0.46116849  0.95605837  0.50964572     0.02720
C580        C  0.46225715  0.99293170  0.51144557     0.02720
C581        C  0.49967380  0.52865568  0.51268736     0.02720
C582        C  0.03575855  0.52720132  0.51427111     0.02720
O583        O  0.25083735  0.73194823  0.42366094    -0.73990
O584        O  0.21325151  0.77376058  0.51054809    -0.74020
O585        O  0.28061622  0.80258534  0.46797463    -0.74070
O586        O  0.18365715  0.70296467  0.46695909    -0.74120
O587        O  0.21042543  0.68309631  0.52414119    -0.74050
O588        O  0.30694962  0.78094849  0.52346905    -0.74030
O589        O  0.24066568  0.75385729  0.56689832    -0.74010
O590        O  0.27695718  0.71056800  0.47983865    -0.74070
Ni591      Ni  0.23115234  0.75351211  0.46513019     1.25410
Ni592      Ni  0.25964757  0.73133586  0.52553176     1.25360
C593        C  0.27020531  0.71471191  0.43725078     0.88190
C594        C  0.22097054  0.77076311  0.55313222     0.88120
C595        C  0.30963634  0.80821936  0.49647397     0.88150
C596        C  0.18110074  0.67704005  0.49620878     0.88320
O597        O  0.40094861  0.92905948  0.95827325    -0.80450
O598        O  0.05060825  0.52719962  0.08514121    -0.65140
O599        O  0.46675067  0.99837522  0.99130534    -1.11740
C600        C  0.04228765  0.95778920  0.91327228     1.06440
O601        O  0.09226755  0.55848980  0.03312621    -0.78350
O602        O  0.07480122  0.55543193  0.94364558    -0.65930
Ni603      Ni  0.41308814  0.96798006  0.00446466     1.34870
C604        C  0.04583843  0.55373337  0.91909906     0.85170
O605        O  0.48547477  0.53425327  0.07842646    -0.78890
O606        O  0.42154433  0.50563149  0.05093977    -0.89160
C607        C  0.08559111  0.54965508  0.07447253     0.84740
O608        O  0.41805735  0.93318544  0.04784867    -0.67370
O609        O  0.07159565  0.98263168  0.93936496    -0.86650
C610        C  0.44701210  0.93455409  0.07200671     0.85570
C611        C  0.45076437  0.52938790  0.07796338     1.07140
H612        H  0.02359075  0.96522989  0.01230431     0.38950
O613        O  0.02660765  0.98950688  0.99946164    -1.09310
O614        O  0.01099739  0.52443241  0.91865678    -0.65970
Ni615      Ni  0.48605961  0.97533609  0.95103005     1.26350
O616        O  0.48212214  0.96310825  0.07163641    -0.66190
O617        O  0.00746069  0.95262108  0.91288945    -0.78490
C618        C  0.40758808  0.93724075  0.91682311     0.84960
O619        O  0.44246903  0.95990090  0.90596885    -0.65660
Ni620      Ni  0.08013349  0.52015000  0.98618332     1.27450
Ni621      Ni  0.00718099  0.51225902  0.03986777     1.26060
H622        H  0.46999190  0.52273567  0.97843971     0.39500
O623        O  0.21615494  0.78413805  0.62900083    -0.80450
O624        O  0.12544854  0.83597995  0.74719333    -0.65140
O625        O  0.14940283  0.78301492  0.65817591    -1.11740
C626        C  0.18773384  0.90242544  0.57707309     1.06440
O627        O  0.09300343  0.85117163  0.69336205    -0.78350
O628        O  0.08997193  0.83520756  0.60553659    -0.65930
Ni629      Ni  0.18034260  0.75896080  0.67542220     1.34870
C630        C  0.09083856  0.80871469  0.58251734     0.85170
O631        O  0.11639681  0.76297813  0.74357822    -0.78890
O632        O  0.14626481  0.73022885  0.72247132    -0.89160
C633        C  0.10386900  0.85074067  0.73514101     0.84740
O634        O  0.21834377  0.79985222  0.71633560    -0.67370
O635        O  0.16285398  0.90552041  0.59939743    -0.86650
C636        C  0.21780341  0.82641358  0.73943870     0.85570
C637        C  0.12249154  0.73377670  0.74626430     1.07140
H638        H  0.18401341  0.87307422  0.67796356     0.38950
O639        O  0.15922625  0.85231874  0.66396963    -1.09310
O640        O  0.12092025  0.80459518  0.58298413    -0.65970
Ni641      Ni  0.17129495  0.82712939  0.61806247     1.26350
O642        O  0.18813992  0.83115210  0.73893309    -0.66190
O643        O  0.19338449  0.87295405  0.57984815    -0.78490
C644        C  0.20616930  0.78567054  0.58725293     0.84960
O645        O  0.18405568  0.79988199  0.57532763    -0.65660
Ni646      Ni  0.12834735  0.87637986  0.64639737     1.27450
Ni647      Ni  0.13763986  0.80836815  0.70441484     1.26060
H648        H  0.12456913  0.76236702  0.64412981     0.39500
O649        O  0.24825832  0.85096217  0.81281909    -0.73990
O650        O  0.33944017  0.90056704  0.89671472    -0.74020
O651        O  0.29141084  0.92365163  0.85264533    -0.74070
O652        O  0.29727099  0.82892193  0.85598854    -0.74120
O653        O  0.33653497  0.85092652  0.79859387    -0.74050
O654        O  0.33027338  0.94455319  0.79546300    -0.74030
O655        O  0.37893679  0.92270509  0.83967796    -0.74010
O656        O  0.28674409  0.87091093  0.75478718    -0.74070
Ni657      Ni  0.29269196  0.87535184  0.85657730     1.25410
Ni658      Ni  0.33439132  0.89815962  0.79491260     1.25360
C659        C  0.25256821  0.85125692  0.77023722     0.88190
C660        C  0.37396303  0.91934984  0.88244971     0.88120
C661        C  0.31096238  0.95043855  0.82419623     0.88150
C662        C  0.31793387  0.82460825  0.82761924     0.88320
C663        C  0.28927472  0.64415772  0.82760637     0.02720
C664        C  0.32588617  0.68034761  0.82776035     0.02720
C665        C  0.36212354  0.68002685  0.82787308     0.02720
C666        C  0.36184154  0.64318589  0.82912558     0.02720
C667        C  0.32489936  0.60681303  0.82905920     0.02720
C668        C  0.28873621  0.60744904  0.82754168     0.02720
O669        O  0.04325512  0.57947251  0.84567792    -0.73990
O670        O  0.08375801  0.66595522  0.76288383    -0.74020
O671        O  0.11086264  0.62153902  0.80540421    -0.74070
O672        O  0.01509414  0.62386804  0.80339209    -0.74120
O673        O  0.03886852  0.66347848  0.86525283    -0.74050
O674        O  0.13793781  0.66830357  0.85957841    -0.74030
O675        O  0.10495903  0.70923825  0.82105054    -0.74010
O676        O  0.07313232  0.62242502  0.90406191    -0.74070
Ni677      Ni  0.06213147  0.62121140  0.80221331     1.25410
Ni678      Ni  0.08938935  0.66737362  0.86474385     1.25360
C679        C  0.05378556  0.58676110  0.88834188     0.88190
C680        C  0.10177207  0.70168124  0.77824058     0.88120
C681        C  0.14069479  0.64517467  0.83199089     0.88150
C682        C  0.01106490  0.64365009  0.83435548     0.88320
O683        O  0.07243171  0.88563840  0.75463297    -0.73990
O684        O  0.04104158  0.93539950  0.83879855    -0.74020
O685        O  0.10666619  0.95838248  0.79433573    -0.74070
O686        O  0.00779223  0.86243209  0.80025344    -0.74120
O687        O  0.03476195  0.84284226  0.85671220    -0.74050
O688        O  0.13227870  0.93794888  0.85221744    -0.74030
O689        O  0.06779662  0.91616155  0.89659637    -0.74010
O690        O  0.09935973  0.86600929  0.81180459    -0.74070
Ni691      Ni  0.05600892  0.91115979  0.79491131     1.25410
Ni692      Ni  0.08431245  0.88997314  0.85648315     1.25360
C693        C  0.09102298  0.86784660  0.76902966     0.88190
C694        C  0.05009698  0.93477033  0.88145564     0.88120
C695        C  0.13557599  0.96379321  0.82284964     0.88150
C696        C  0.00526142  0.83609123  0.82881920     0.88320
C697        C  0.40038024  0.64279203  0.83039895    -0.04900
C698        C  0.41434688  0.62982234  0.86967449    -0.02020
C699        C  0.45050274  0.63014337  0.87092005     0.02970
C700        C  0.47366689  0.64398416  0.83362465    -0.04900
C701        C  0.46084753  0.65752895  0.79493032    -0.02010
C702        C  0.42432147  0.65638407  0.79283712     0.02970
C703        C  0.39427848  0.61902607  0.91108733     0.37620
C704        C  0.48595191  0.67358568  0.75728536     0.37610
C705        C  0.41164819  0.66719250  0.75011146     0.36030
C706        C  0.96393745  0.61592414  0.91076955     0.36030
N707        N  0.40420589  0.67463854  0.71361113    -0.38790
N708        N  0.97464555  0.60463845  0.94249047    -0.38790
N709        N  0.50602393  0.68654430  0.72746834    -0.38230
N710        N  0.38236792  0.61215670  0.94684299    -0.38230
C711        C  0.17884572  0.64562440  0.83065287    -0.04900
C712        C  0.20687795  0.65875121  0.86901154    -0.02020
C713        C  0.24255119  0.65848329  0.86782398     0.02970
C714        C  0.25106125  0.64481617  0.82840916    -0.04900
C715        C  0.22283345  0.63182237  0.79001486    -0.02010
C716        C  0.18738871  0.63253473  0.79098240     0.02970
C717        C  0.19890768  0.67147135  0.91094464     0.37620
C718        C  0.22986376  0.61933719  0.74764510     0.37610
C719        C  0.16038667  0.62073295  0.74986466     0.36030
C720        C  0.26863706  0.66997984  0.90926373     0.36030
N721        N  0.13909343  0.61114931  0.71703052    -0.38790
N722        N  0.28639042  0.67795828  0.94458487    -0.38790
N723        N  0.23261535  0.61029095  0.71156430    -0.38230
N724        N  0.19293627  0.68177311  0.94442743    -0.38230
C725        C  0.24958777  0.56935808  0.82643201    -0.04900
C726        C  0.23359549  0.54481731  0.78640978    -0.02020
C727        C  0.19562231  0.51104159  0.78468497     0.02970
C728        C  0.17372554  0.50063493  0.82305442    -0.04900
C729        C  0.18968290  0.52367788  0.86335850    -0.02010
C730        C  0.22693448  0.55809630  0.86493173     0.02970
C731        C  0.25408164  0.55447948  0.74527856     0.37620
C732        C  0.16797246  0.51165262  0.90398387     0.37610
C733        C  0.24149287  0.58009282  0.90769314     0.36030
C734        C  0.17940389  0.98615096  0.74368789     0.36030
N735        N  0.25047522  0.59426914  0.94394314    -0.38790
N736        N  0.16650997  0.96632294  0.71107261    -0.38790
N737        N  0.15162734  0.50230486  0.93698326    -0.38230
N738        N  0.26690269  0.56028496  0.71004694    -0.38230
C739        C  0.40037765  0.71904429  0.82708574    -0.04900
C740        C  0.40804592  0.74387421  0.78866625    -0.02020
C741        C  0.44111364  0.78234241  0.78979373     0.02970
C742        C  0.46841521  0.79653609  0.82882874    -0.04900
C743        C  0.46150568  0.77142216  0.86684760    -0.02010
C744        C  0.42799474  0.73322725  0.86590258     0.02970
C745        C  0.38400540  0.72987255  0.74589172     0.37620
C746        C  0.98805027  0.78482591  0.90833747     0.37610
C747        C  0.42159679  0.71059445  0.90718341     0.36030
C748        C  0.44698466  0.80660040  0.74957167     0.36030
N749        N  0.41890745  0.69645192  0.94271155    -0.38790
N750        N  0.45118853  0.82565814  0.71744851    -0.38790
N751        N  0.00904659  0.79502611  0.94142114    -0.38230
N752        N  0.36817358  0.72110182  0.70955597    -0.38230
C753        C  0.32332218  0.56735594  0.82902682    -0.04900
C754        C  0.31167066  0.54230354  0.86738061    -0.02020
C755        C  0.30798132  0.50451616  0.86610580     0.02970
C756        C  0.31296895  0.98963555  0.82539337    -0.04900
C757        C  0.32292041  0.01386265  0.78657678    -0.02010
C758        C  0.33025425  0.55295475  0.78916611     0.02970
C759        C  0.30511222  0.55501549  0.90986700     0.37620
C760        C  0.32400539  0.99826043  0.74274479     0.37610
C761        C  0.34270873  0.57665728  0.74882993     0.36030
C762        C  0.30033115  0.48178451  0.90776119     0.36030
N763        N  0.35097126  0.59204225  0.71410495    -0.38790
N764        N  0.29437582  0.46400501  0.94112958    -0.38790
N765        N  0.32473738  0.98595657  0.70771097    -0.38230
N766        N  0.30067496  0.56248081  0.94594618    -0.38230
C767        C  0.32043106  0.78849621  0.82777569    -0.04900
C768        C  0.33696469  0.77888281  0.86659761    -0.02020
C769        C  0.34035231  0.74471765  0.86627438     0.02970
C770        C  0.32581295  0.71895098  0.82726661    -0.04900
C771        C  0.30985775  0.72976701  0.78801836    -0.02010
C772        C  0.30803780  0.76471787  0.78812023     0.02970
C773        C  0.35157496  0.80498850  0.90663094     0.37620
C774        C  0.29675364  0.70686212  0.74590175     0.37610
C775        C  0.29376923  0.77648018  0.74680238     0.36030
C776        C  0.35711011  0.73629431  0.90769596     0.36030
N777        N  0.28307171  0.78572794  0.71335537    -0.38790
N778        N  0.36952996  0.73192602  0.94308672    -0.38790
N779        N  0.28703825  0.69198433  0.71001329    -0.38230
N780        N  0.36323389  0.82581199  0.93842716    -0.38230
C781        C  0.14340149  0.63968798  0.49948233    -0.04900
C782        C  0.12848367  0.61079809  0.46440014    -0.02020
C783        C  0.09442166  0.57373437  0.46987209     0.02970
C784        C  0.07417010  0.56557358  0.51015222    -0.04900
C785        C  0.09047824  0.59455874  0.54584202    -0.02010
C786        C  0.12434650  0.63150440  0.54011074     0.02970
C787        C  0.14899741  0.61885461  0.42317369     0.37620
C788        C  0.07610959  0.58556614  0.59077624     0.37610
C789        C  0.13985810  0.66127139  0.57652300     0.36030
C790        C  0.08138668  0.54380871  0.43432540     0.36030
N791        N  0.15201781  0.68479830  0.60566277    -0.38790
N792        N  0.07205602  0.52062334  0.40533268    -0.38790
N793        N  0.06798703  0.58007743  0.62823935    -0.38230
N794        N  0.16540010  0.62535805  0.39032899    -0.38230
C795        C  0.42173903  0.91803156  0.50597122    -0.04900
C796        C  0.40472821  0.89695996  0.54560093    -0.02020
C797        C  0.36693276  0.86298245  0.54234460     0.02970
C798        C  0.34711459  0.84686733  0.49927637    -0.04900
C799        C  0.36444396  0.86659610  0.45951038    -0.02010
C800        C  0.40108326  0.90230301  0.46278408     0.02970
C801        C  0.42582119  0.90835317  0.59030187     0.37620
C802        C  0.34532894  0.84923640  0.41499966     0.37610
C803        C  0.41758404  0.92132144  0.42095749     0.36030
C804        C  0.34794911  0.84519771  0.58384380     0.36030
N805        N  0.42891003  0.93452583  0.38602551    -0.38790
N806        N  0.33278716  0.83124912  0.61688876    -0.38790
N807        N  0.32989182  0.83504873  0.37970820    -0.38230
N808        N  0.44032953  0.91494714  0.62733795    -0.38230
C809        C  0.34703122  0.98695450  0.50292362    -0.04900
C810        C  0.36856567  0.99576272  0.46412611    -0.02020
C811        C  0.40611906  0.99856041  0.46695411     0.02970
C812        C  0.42343324  0.99333080  0.50912038    -0.04900
C813        C  0.40130200  0.98466432  0.54802301    -0.02010
C814        C  0.36327148  0.98059174  0.54450886     0.02970
C815        C  0.35223551  0.00272957  0.42111730     0.37620
C816        C  0.41683293  0.98068959  0.59283130     0.37610
C817        C  0.33971985  0.96791308  0.58355752     0.36030
C818        C  0.42574157  0.00617096  0.42539827     0.36030
N819        N  0.32046145  0.45721846  0.61422204    -0.38790
N820        N  0.43871263  0.01176893  0.39028999    -0.38790
N821        N  0.42639837  0.97763762  0.63032904    -0.38230
N822        N  0.33887280  0.00814650  0.38700515    -0.38230
C823        C  0.14874572  0.00349589  0.49334187    -0.04900
C824        C  0.11266411  0.97318414  0.47189356    -0.02020
C825        C  0.07845194  0.96001721  0.49474320     0.02970
C826        C  0.07382659  0.98832488  0.51831449    -0.04900
C827        C  0.10888221  0.51738545  0.54224388    -0.02010
C828        C  0.14607359  0.52715163  0.52748835     0.02970
C829        C  0.11130260  0.94736358  0.43641389     0.37620
C830        C  0.10734741  0.52764597  0.58852912     0.37610
C831        C  0.18085244  0.56226622  0.54677980     0.36030
C832        C  0.07419668  0.92697674  0.52225504     0.36030
N833        N  0.20845888  0.59068357  0.56168033    -0.38790
N834        N  0.07386488  0.90197242  0.54456048    -0.38790
N835        N  0.10761526  0.53429660  0.62672625    -0.38230
N836        N  0.10966092  0.92612780  0.40849383    -0.38230
C837        C  0.50577385  0.64367336  0.50647599    -0.04900
C838        C  0.50108235  0.62352521  0.54821122    -0.02020
C839        C  0.49686972  0.58548052  0.54966152     0.02970
C840        C  0.50121515  0.56818354  0.51038526    -0.04900
C841        C  0.00894282  0.58980774  0.46933306    -0.02010
C842        C  0.00956814  0.62632675  0.46693965     0.02970
C843        C  0.50210449  0.64246426  0.59066169     0.37620
C844        C  0.01633445  0.57504351  0.42884652     0.37610
C845        C  0.01265769  0.64507672  0.42302919     0.36030
C846        C  0.49040482  0.56607791  0.59316553     0.36030
N847        N  0.01488458  0.65989817  0.38796744    -0.38790
N848        N  0.48695656  0.55416824  0.62991873    -0.38790
N849        N  0.02236984  0.56475248  0.39541570    -0.38230
N850        N  0.50308289  0.65748524  0.62454340    -0.38230
C851        C  0.49289248  0.91474890  0.50591915    -0.04900
C852        C  0.49185873  0.89316315  0.54538373    -0.02020
C853        C  0.48516481  0.85437951  0.54151639     0.02970
C854        C  0.48352193  0.83824291  0.49798605    -0.04900
C855        C  0.48567161  0.86045372  0.45852840    -0.02010
C856        C  0.49062908  0.89858809  0.46251483     0.02970
C857        C  0.50658715  0.91387564  0.58921755     0.37620
C858        C  0.98305241  0.84433935  0.41358944     0.37610
C859        C  0.99867718  0.92292083  0.42243178     0.36030
C860        C  0.48443079  0.83327245  0.58317667     0.36030
N861        N  0.00584255  0.94161831  0.38977335    -0.38790
N862        N  0.48387092  0.81665288  0.61652634    -0.38790
N863        N  0.98104288  0.83163736  0.37769804    -0.38230
N864        N  0.51987812  0.93067736  0.62382251    -0.38230
C865        C  0.17695967  0.69978994  0.16543617    -0.04900
C866        C  0.18091084  0.71723760  0.20837738    -0.02020
C867        C  0.17571886  0.75013964  0.21179987     0.02970
C868        C  0.16950113  0.76828413  0.17208421    -0.04900
C869        C  0.16547883  0.75045998  0.12891906    -0.02010
C870        C  0.16893286  0.71629499  0.12576093     0.02970
C871        C  0.19070988  0.70148900  0.24963546     0.37620
C872        C  0.15617516  0.76549743  0.08719890     0.37610
C873        C  0.16232751  0.69696381  0.08174381     0.36030
C874        C  0.17478823  0.76308917  0.25702741     0.36030
N875        N  0.15684920  0.68140188  0.04673105    -0.38790
N876        N  0.17395433  0.77070828  0.29454311    -0.38790
N877        N  0.14849095  0.77525238  0.05219020    -0.38230
N878        N  0.19838738  0.68911217  0.28265002    -0.38230
C879        C  0.16816105  0.91749363  0.18084200    -0.04900
C880        C  0.15467049  0.92860716  0.13993752    -0.02020
C881        C  0.16094930  0.96741173  0.13494805     0.02970
C882        C  0.18006806  0.99540149  0.17106013    -0.04900
C883        C  0.19248898  0.98420630  0.21226996    -0.02010
C884        C  0.18561384  0.94535600  0.21761411     0.02970
C885        C  0.13250533  0.89976202  0.10355416     0.37620
C886        C  0.21231410  0.51285056  0.24963732     0.37610
C887        C  0.19143012  0.93316381  0.26306131     0.36030
C888        C  0.14628478  0.97807505  0.09320519     0.36030
N889        N  0.19413651  0.92459807  0.30062544    -0.38790
N890        N  0.13456005  0.98654290  0.05991162    -0.38790
N891        N  0.22820154  0.53568478  0.27935524    -0.38230
N892        N  0.11445882  0.87737897  0.07400014    -0.38230
C893        C  0.02958849  0.68693499  0.16874650    -0.04900
C894        C  0.05148651  0.70278016  0.21139542    -0.01870
C895        C  0.08317035  0.74206054  0.21479567     0.02970
C896        C  0.09543490  0.76499543  0.17536324    -0.04900
C897        C  0.07398799  0.74924046  0.13280772    -0.02010
C898        C  0.04189228  0.71021678  0.12928867     0.02970
C899        C  0.03993317  0.68021871  0.25286560     0.37620
C900        C  0.08152336  0.77456097  0.09363340     0.37610
C901        C  0.52185807  0.69416695  0.08463602     0.36030
C902        C  0.09671656  0.76168027  0.25928516     0.36030
N903        N  0.50600243  0.68146696  0.04898109    -0.38790
N904        N  0.10568251  0.77758099  0.29459323    -0.38790
N905        N  0.08611089  0.79403799  0.06187098    -0.38230
N906        N  0.03095391  0.66224964  0.28597478    -0.38230
C907        C  0.24199743  0.91747695  0.17873684    -0.04900
C908        C  0.26877148  0.93475495  0.21793549    -0.02020
C909        C  0.30531674  0.96980291  0.21476929     0.02970
C910        C  0.31701626  0.98745109  0.17210068    -0.04900
C911        C  0.29049574  0.97049658  0.13285224    -0.02010
C912        C  0.25286386  0.93667700  0.13643055     0.02970
C913        C  0.25931510  0.91835027  0.26275281     0.37620
C914        C  0.30228908  0.98676425  0.08815839     0.37610
C915        C  0.22551853  0.92244937  0.09603711     0.36030
C916        C  0.33048049  0.98837868  0.25624790     0.36030
N917        N  0.20487351  0.91270350  0.06270464    -0.38790
N918        N  0.35074630  0.00332098  0.28904883    -0.38790
N919        N  0.31166630  0.49951687  0.05244812    -0.38230
N920        N  0.25459194  0.90855237  0.30027281    -0.38230
C921        C  0.08954718  0.83959283  0.18708821    -0.04900
C922        C  0.05233175  0.80706135  0.17204188    -0.02020
C923        C  0.02434043  0.81426026  0.14761278     0.02970
C924        C  0.02295061  0.84835034  0.15947674    -0.04900
C925        C  0.05602530  0.87812944  0.18629304    -0.02010
C926        C  0.08676269  0.87148016  0.20403777     0.02970
C927        C  0.03290385  0.77815999  0.20664862     0.37620
C928        C  0.05872797  0.91549205  0.19678744     0.37610
C929        C  0.10163494  0.88448393  0.25062250     0.36030
C930        C  0.49163115  0.78151951  0.12180050     0.36030
N931        N  0.10996972  0.89339646  0.28890600    -0.38790
N932        N  0.46565208  0.75503900  0.10150066    -0.38790
N933        N  0.06123168  0.94553227  0.20480479    -0.38230
N934        N  0.01568423  0.75590898  0.23430841    -0.38230
C935        C  0.24271330  0.84318251  0.17291759    -0.04900
C936        C  0.26569367  0.84114208  0.21174096    -0.02020
C937        C  0.30105227  0.84097408  0.20698969     0.02970
C938        C  0.31353245  0.84095601  0.16339473    -0.04900
C939        C  0.29031762  0.84147394  0.12444612    -0.02010
C940        C  0.25578382  0.84355787  0.12912945     0.02970
C941        C  0.25395734  0.83848959  0.25748958     0.37620
C942        C  0.30255800  0.84103903  0.07929811     0.37610
C943        C  0.23456094  0.84650350  0.08805990     0.36030
C944        C  0.32441110  0.83996030  0.24759410     0.36030
N945        N  0.21951382  0.84888561  0.05352989    -0.38790
N946        N  0.34342338  0.83959938  0.27967643    -0.38790
N947        N  0.31215909  0.84045757  0.04329297    -0.38230
N948        N  0.24800782  0.83613886  0.29564764    -0.38230
O949        O  0.90179907  0.13706732  0.29956208    -0.80450
O950        O  0.80811053  0.18693380  0.41470264    -0.65140
O951        O  0.83463751  0.13555134  0.32672707    -1.11740
C952        C  0.87136282  0.25392999  0.24406435     1.06440
O953        O  0.77674733  0.20375038  0.36110569    -0.78350
O954        O  0.77454757  0.18573871  0.27447185    -0.65930
Ni955      Ni  0.86498544  0.11100284  0.34489149     1.34870
C956        C  0.77617316  0.16001012  0.25089513     0.85170
O957        O  0.79951509  0.11455774  0.41028457    -0.78890
O958        O  0.82954822  0.08155958  0.39045197    -0.89160
C959        C  0.78594318  0.20105413  0.40286909     0.84740
O960        O  0.90171041  0.15050565  0.38823115    -0.67370
O961        O  0.84614184  0.25622638  0.26648022    -0.86650
C962        C  0.90020417  0.17642900  0.41164983     0.85570
C963        C  0.80539181  0.08528205  0.41331174     1.07140
H964        H  0.86834358  0.22537787  0.34710754     0.38950
O965        O  0.84390183  0.20466166  0.33249758    -1.09310
O966        O  0.80681788  0.15690069  0.25078238    -0.65970
Ni967      Ni  0.85689860  0.17982482  0.28673085     1.26350
O968        O  0.87107727  0.18216364  0.40875137    -0.66190
O969        O  0.87880830  0.22562946  0.24800304    -0.78490
C970        C  0.89164118  0.13751816  0.25755845     0.84960
O971        O  0.87045756  0.15263582  0.24473744    -0.65660
Ni972      Ni  0.81239013  0.22795665  0.31414008     1.27450
Ni973      Ni  0.82160702  0.16025628  0.37222658     1.26060
H974        H  0.81001776  0.11492790  0.31215984     0.39500
C975        C  0.70425315  0.34281307  0.17772125     0.02720
C976        C  0.70355834  0.37870537  0.18128723     0.02720
C977        C  0.66671704  0.37805576  0.18380185     0.02720
C978        C  0.62966835  0.34080753  0.18426766     0.02720
C979        C  0.63155659  0.30514959  0.17869384     0.02720
C980        C  0.66829554  0.30625285  0.17602465     0.02720
O981        O  0.70707806  0.11584947  0.23607544    -0.73990
O982        O  0.61453310  0.06265501  0.15173223    -0.74020
O983        O  0.66345557  0.04130069  0.19815090    -0.74070
O984        O  0.65731113  0.13521206  0.19103611    -0.74120
O985        O  0.69824618  0.15730592  0.13546355    -0.74050
O986        O  0.69958419  0.05920035  0.13811633    -0.74030
O987        O  0.65375958  0.08542041  0.09448653    -0.74010
O988        O  0.74541821  0.13249348  0.17814224    -0.74070
Ni989      Ni  0.65926961  0.08784630  0.19636661     1.25410
Ni990      Ni  0.70064007  0.10917845  0.13444453     1.25360
C991        C  0.74129597  0.13414934  0.22052572     0.88190
C992        C  0.61930471  0.06663897  0.10888713     0.88120
C993        C  0.68142099  0.03407361  0.16884785     0.88150
C994        C  0.67750930  0.16221498  0.16337102     0.88320
O995        O  0.94856512  0.40916160  0.14572623    -0.73990
O996        O  0.91008429  0.32215132  0.22806213    -0.74020
O997        O  0.97868125  0.36651730  0.18732541    -0.74070
O998        O  0.88140577  0.36567522  0.18667351    -0.74120
O999        O  0.85496040  0.32017821  0.13068648    -0.74050
O1000       O  0.95619588  0.32685106  0.12603406    -0.74030
O1001       O  0.88895662  0.27939454  0.16941355    -0.74010
O1002       O  0.92036806  0.36633854  0.08697876    -0.74070
Ni1003     Ni  0.93072422  0.36731142  0.18899866     1.25410
Ni1004     Ni  0.90444844  0.32162632  0.12604872     1.25360
C1005       C  0.93887117  0.40184664  0.10292358     0.88190
C1006       C  0.89217597  0.28649923  0.21235750     0.88120
C1007       C  0.98424718  0.34772346  0.15653163     0.88150
C1008       C  0.85183849  0.34234558  0.15959072     0.88320
O1009       O  0.89744411  0.12292110  0.18137256    -0.73990
O1010       O  0.92602404  0.07097612  0.09608078    -0.74020
O1011       O  0.86114170  0.05053738  0.14048667    -0.74070
O1012       O  0.96285026  0.14389893  0.13774058    -0.74120
O1013       O  0.98665568  0.12157395  0.19498259    -0.74050
O1014       O  0.88585198  0.02785858  0.19640854    -0.74030
O1015       O  0.95171001  0.05002384  0.15323885    -0.74010
O1016       O  0.92110141  0.10008987  0.23855501    -0.74070
Ni1017     Ni  0.91116636  0.09793692  0.13673622     1.25410
Ni1018     Ni  0.93714310  0.07408963  0.19783803     1.25360
C1019       C  0.90435972  0.11975410  0.22413897     0.88190
C1020       C  0.94308451  0.05170330  0.11063084     0.88120
C1021       C  0.85666286  0.02367934  0.16923702     0.88150
C1022       C  0.99134876  0.14864956  0.16660625     0.88320
O1023       O  0.92988707  0.20042473  0.48636089    -0.73990
O1024       O  0.52209208  0.26153298  0.56881515    -0.74020
O1025       O  0.96706787  0.27393243  0.52371498    -0.74070
O1026       O  0.98343093  0.18606051  0.53231814    -0.74120
O1027       O  0.52081111  0.20692984  0.47373580    -0.74050
O1028       O  0.50562694  0.29702789  0.46615372    -0.74030
O1029       O  0.55945800  0.28163110  0.50983393    -0.74010
O1030       O  0.96785010  0.22232481  0.42790819    -0.74070
Ni1031     Ni  0.97437432  0.22963839  0.52992256     1.25410
Ni1032     Ni  0.51470238  0.25277244  0.46720229     1.25360
C1033       C  0.93414051  0.20111555  0.44352980     0.88190
C1034       C  0.55577833  0.28242662  0.55248344     0.88120
C1035       C  0.98485302  0.30090096  0.49502580     0.88150
C1036       C  0.00369729  0.18100035  0.50412590     0.88320
O1037       O  0.78608336  0.05931197  0.48688596    -0.73990
O1038       O  0.73279791  0.47035401  0.56484896    -0.74020
O1039       O  0.80555829  0.00893400  0.53069352    -0.74070
O1040       O  0.71476285  0.02137067  0.52168027    -0.74120
O1041       O  0.68949027  0.48073063  0.46141123    -0.74050
O1042       O  0.78148160  0.46845015  0.46975539    -0.74030
O1043       O  0.70892877  0.42946190  0.50422136    -0.74010
O1044       O  0.76149399  0.01810436  0.42646936    -0.74070
Ni1045     Ni  0.76073173  0.01635664  0.52817929     1.25410
Ni1046     Ni  0.73441309  0.47270855  0.46328708     1.25360
C1047       C  0.78278246  0.05295057  0.44377001     0.88190
C1048       C  0.71134119  0.43547158  0.54727077     0.88120
C1049       C  0.80922911  0.48773194  0.50112242     0.88150
C1050       C  0.68655292  0.50266828  0.49089937     0.88320
C1051       C  0.53493903  0.48981965  0.51514200     0.02720
C1052       C  0.99686424  0.45460088  0.51030101     0.02720
C1053       C  0.96116851  0.45605838  0.50964584     0.02720
C1054       C  0.96225717  0.49293171  0.51144564     0.02720
C1055       C  0.99967380  0.02865567  0.51268731     0.02720
C1056       C  0.53575854  0.02720130  0.51427103     0.02720
O1057       O  0.75083741  0.23194825  0.42366099    -0.73990
O1058       O  0.71325151  0.27376054  0.51054815    -0.74020
O1059       O  0.78061623  0.30258534  0.46797471    -0.74070
O1060       O  0.68365718  0.20296466  0.46695910    -0.74120
O1061       O  0.71042545  0.18309628  0.52414119    -0.74050
O1062       O  0.80694964  0.28094849  0.52346913    -0.74030
O1063       O  0.74066567  0.25385723  0.56689837    -0.74010
O1064       O  0.77695723  0.21056801  0.47983869    -0.74070
Ni1065     Ni  0.73115236  0.25351211  0.46513024     1.25410
Ni1066     Ni  0.75964759  0.23133584  0.52553180     1.25360
C1067       C  0.77020537  0.21471194  0.43725082     0.88190
C1068       C  0.72097052  0.27076305  0.55313228     0.88120
C1069       C  0.80963636  0.30821936  0.49647406     0.88150
C1070       C  0.68110077  0.17704002  0.49620877     0.88320
O1071       O  0.90094861  0.42905950  0.95827321    -0.80450
O1072       O  0.55060838  0.02719943  0.08514133    -0.65140
O1073       O  0.96675059  0.49837529  0.99130520    -1.11740
C1074       C  0.54228762  0.45778922  0.91327230     1.06440
O1075       O  0.59226766  0.05848968  0.03312632    -0.78350
O1076       O  0.57480127  0.05543191  0.94364569    -0.65930
Ni1077     Ni  0.91308806  0.46798013  0.00446452     1.34870
C1078       C  0.54583847  0.05373334  0.91909918     0.85170
O1079       O  0.98547490  0.03425309  0.07842670    -0.78890
O1080       O  0.92154445  0.00563135  0.05094003    -0.89160
C1081       C  0.58559124  0.04965493  0.07447265     0.84740
O1082       O  0.91805728  0.43318562  0.04784870    -0.67370
O1083       O  0.57159561  0.48263170  0.93936500    -0.86650
C1084       C  0.94701203  0.43455433  0.07200679     0.85570
C1085       C  0.95076449  0.02938773  0.07796364     1.07140
H1086       H  0.52359067  0.46523000  0.01230431     0.38950
O1087       O  0.52660757  0.48950697  0.99946159    -1.09310
O1088       O  0.51099744  0.02443237  0.91865689    -0.65970
Ni1089     Ni  0.98605956  0.47533614  0.95102997     1.26350
O1090       O  0.98212208  0.46310847  0.07163639    -0.66190
O1091       O  0.50746066  0.45262111  0.91288943    -0.78490
C1092       C  0.90758804  0.43724074  0.91682306     0.84960
O1093       O  0.94246898  0.45990090  0.90596877    -0.65660
Ni1094     Ni  0.58013356  0.02014993  0.98618335     1.27450
Ni1095     Ni  0.50718109  0.01225888  0.03986791     1.26060
H1096       H  0.96999200  0.02273561  0.97843991     0.39500
O1097       O  0.71615488  0.28413793  0.62900090    -0.80450
O1098       O  0.62544850  0.33597990  0.74719340    -0.65140
O1099       O  0.64940279  0.28301485  0.65817598    -1.11740
C1100       C  0.68773385  0.40242539  0.57707317     1.06440
O1101       O  0.59300343  0.35117163  0.69336212    -0.78350
O1102       O  0.58997194  0.33520754  0.60553668    -0.65930
Ni1103     Ni  0.68034255  0.25896073  0.67542229     1.34870
C1104       C  0.59083857  0.30871467  0.58251744     0.85170
O1105       O  0.61639673  0.26297806  0.74357828    -0.78890
O1106       O  0.64626478  0.23022881  0.72247144    -0.89160
C1107       C  0.60386899  0.35074065  0.73514108     0.84740
O1108       O  0.71834373  0.29985218  0.71633563    -0.67370
O1109       O  0.66285399  0.40552036  0.59939750    -0.86650
C1110       C  0.71780336  0.32641352  0.73943875     0.85570
C1111       C  0.62249149  0.23377665  0.74626440     1.07140
H1112       H  0.68401340  0.37307416  0.67796366     0.38950
O1113       O  0.65922624  0.35231869  0.66396972    -1.09310
O1114       O  0.62092025  0.30459515  0.58298422    -0.65970
Ni1115     Ni  0.67129494  0.32712933  0.61806256     1.26350
O1116       O  0.68813985  0.33115201  0.73893318    -0.66190
O1117       O  0.69338450  0.37295399  0.57984824    -0.78490
C1118       C  0.70616926  0.28567046  0.58725300     0.84960
O1119       O  0.68405566  0.29988192  0.57532771    -0.65660
Ni1120     Ni  0.62834736  0.37637984  0.64639745     1.27450
Ni1121     Ni  0.63763981  0.30836808  0.70441491     1.26060
H1122       H  0.62456909  0.26236696  0.64412988     0.39500
O1123       O  0.74825827  0.35096214  0.81281912    -0.73990
O1124       O  0.83944013  0.40056702  0.89671472    -0.74020
O1125       O  0.79141080  0.42365161  0.85264534    -0.74070
O1126       O  0.79727095  0.32892191  0.85598855    -0.74120
O1127       O  0.83653492  0.35092649  0.79859387    -0.74050
O1128       O  0.83027331  0.44455316  0.79546299    -0.74030
O1129       O  0.87893673  0.42270507  0.83967794    -0.74010
O1130       O  0.78674402  0.37091089  0.75478720    -0.74070
Ni1131     Ni  0.79269192  0.37535182  0.85657732     1.25410
Ni1132     Ni  0.83439126  0.39815959  0.79491260     1.25360
C1133       C  0.75256816  0.35125687  0.77023725     0.88190
C1134       C  0.87396299  0.41934982  0.88244969     0.88120
C1135       C  0.81096233  0.45043852  0.82419623     0.88150
C1136       C  0.81793383  0.32460823  0.82761925     0.88320
C1137       C  0.78927473  0.14415772  0.82760639     0.02720
C1138       C  0.82588617  0.18034761  0.82776039     0.02720
C1139       C  0.86212355  0.18002686  0.82787313     0.02720
C1140       C  0.86184154  0.14318589  0.82912563     0.02720
C1141       C  0.82489937  0.10681303  0.82905923     0.02720
C1142       C  0.78873621  0.10744904  0.82754170     0.02720
O1143       O  0.54325513  0.07947248  0.84567806    -0.73990
O1144       O  0.58375797  0.16595517  0.76288395    -0.74020
O1145       O  0.61086263  0.12153899  0.80540431    -0.74070
O1146       O  0.51509412  0.12386799  0.80339223    -0.74120
O1147       O  0.53886851  0.16347844  0.86525296    -0.74050
O1148       O  0.63793780  0.16830354  0.85957850    -0.74030
O1149       O  0.60495900  0.20923822  0.82105064    -0.74010
O1150       O  0.57313234  0.12242500  0.90406203    -0.74070
Ni1151     Ni  0.56213146  0.12121136  0.80221343     1.25410
Ni1152     Ni  0.58938935  0.16737359  0.86474397     1.25360
C1153       C  0.55378559  0.08676108  0.88834201     0.88190
C1154       C  0.60177203  0.20168119  0.77824068     0.88120
C1155       C  0.64069479  0.14517465  0.83199098     0.88150
C1156       C  0.51106489  0.14365005  0.83435562     0.88320
O1157       O  0.57243171  0.38563840  0.75463303    -0.73990
O1158       O  0.54104157  0.43539950  0.83879858    -0.74020
O1159       O  0.60666618  0.45838249  0.79433576    -0.74070
O1160       O  0.50779223  0.36243208  0.80025350    -0.74120
O1161       O  0.53476195  0.34284228  0.85671228    -0.74050
O1162       O  0.63227869  0.43794890  0.85221748    -0.74030
O1163       O  0.56779661  0.41616158  0.89659642    -0.74010
O1164       O  0.59935973  0.36600929  0.81180466    -0.74070
Ni1165     Ni  0.55600891  0.41115979  0.79491135     1.25410
Ni1166     Ni  0.58431244  0.38997316  0.85648321     1.25360
C1167       C  0.59102297  0.36784660  0.76902973     0.88190
C1168       C  0.55009696  0.43477035  0.88145568     0.88120
C1169       C  0.63557597  0.46379322  0.82284968     0.88150
C1170       C  0.50526143  0.33609124  0.82881927     0.88320
C1171       C  0.90038025  0.14279203  0.83039902    -0.04900
C1172       C  0.91434687  0.12982233  0.86967458    -0.02020
C1173       C  0.95050273  0.13014335  0.87092015     0.02970
C1174       C  0.97366688  0.14398414  0.83362477    -0.04900
C1175       C  0.96084755  0.15752894  0.79493043    -0.02010
C1176       C  0.92432150  0.15638408  0.79283721     0.02970
C1177       C  0.89427845  0.11902607  0.91108740     0.37620
C1178       C  0.98595193  0.17358565  0.75728547     0.37610
C1179       C  0.91164824  0.16719253  0.75011155     0.36030
C1180       C  0.46393741  0.11592412  0.91076967     0.36030
N1181       N  0.90420597  0.17463859  0.71361122    -0.38790
N1182       N  0.47464550  0.10463843  0.94249061    -0.38790
N1183       N  0.00602397  0.18654426  0.72746846    -0.38230
N1184       N  0.88236787  0.11215669  0.94684305    -0.38230
C1185       C  0.67884572  0.14562438  0.83065294    -0.04900
C1186       C  0.70687799  0.15875125  0.86901158    -0.02020
C1187       C  0.74255122  0.15848331  0.86782401     0.02970
C1188       C  0.75106125  0.14481617  0.82840919    -0.04900
C1189       C  0.72283344  0.13182234  0.79001492    -0.02010
C1190       C  0.68738867  0.13253466  0.79098248     0.02970
C1191       C  0.69890776  0.17147147  0.91094466     0.37620
C1192       C  0.72986373  0.11933716  0.74764514     0.37610
C1193       C  0.66038658  0.12073278  0.74986479     0.36030
C1194       C  0.76863709  0.16997985  0.90926376     0.36030
N1195       N  0.63909329  0.11114905  0.71703068    -0.38790
N1196       N  0.78639046  0.17795828  0.94458489    -0.38790
N1197       N  0.73261532  0.11029093  0.71156434    -0.38230
N1198       N  0.69293640  0.18177329  0.94442743    -0.38230
C1199       C  0.74958778  0.06935808  0.82643202    -0.04900
C1200       C  0.73359551  0.04481731  0.78640978    -0.02020
C1201       C  0.69562233  0.01104159  0.78468496     0.02970
C1202       C  0.67372555  0.00063492  0.82305440    -0.04900
C1203       C  0.68968290  0.02367785  0.86335849    -0.02010
C1204       C  0.72693448  0.05809629  0.86493173     0.02970
C1205       C  0.75408167  0.05447949  0.74527857     0.37620
C1206       C  0.66797247  0.01165258  0.90398386     0.37610
C1207       C  0.74149285  0.08009281  0.90769313     0.36030
C1208       C  0.67940386  0.48615095  0.74368791     0.36030
N1209       N  0.75047519  0.09426913  0.94394313    -0.38790
N1210       N  0.66650994  0.46632291  0.71107263    -0.38790
N1211       N  0.65162735  0.00230480  0.93698326    -0.38230
N1212       N  0.76690272  0.06028499  0.71004695    -0.38230
C1213       C  0.90037766  0.21904429  0.82708579    -0.04900
C1214       C  0.90804592  0.24387421  0.78866631    -0.02020
C1215       C  0.94111363  0.28234242  0.78979380     0.02970
C1216       C  0.96841522  0.29653609  0.82882880    -0.04900
C1217       C  0.96150570  0.27142214  0.86684765    -0.02010
C1218       C  0.92799475  0.23322724  0.86590263     0.02970
C1219       C  0.88400541  0.22987255  0.74589178     0.37620
C1220       C  0.48805033  0.28482586  0.90833749     0.37610
C1221       C  0.92159680  0.21059445  0.90718346     0.36030
C1222       C  0.94698463  0.30660042  0.74957175     0.36030
N1223       N  0.91890746  0.19645193  0.94271161    -0.38790
N1224       N  0.95118848  0.32565817  0.71744860    -0.38790
N1225       N  0.50904667  0.29502603  0.94142115    -0.38230
N1226       N  0.86817359  0.22110182  0.70955603    -0.38230
C1227       C  0.82332219  0.06735595  0.82902683    -0.04900
C1228       C  0.81167067  0.04230354  0.86738061    -0.02020
C1229       C  0.80798134  0.00451617  0.86610579     0.02970
C1230       C  0.81296889  0.48963552  0.82539336    -0.04900
C1231       C  0.82292034  0.51386261  0.78657676    -0.02010
C1232       C  0.83025428  0.05295478  0.78916613     0.02970
C1233       C  0.80511219  0.05501547  0.90986700     0.37620
C1234       C  0.82400527  0.49826037  0.74274477     0.37610
C1235       C  0.84270876  0.07665732  0.74882996     0.36030
C1236       C  0.80033117  0.98178451  0.90776118     0.36030
N1237       N  0.85097129  0.09204230  0.71410498    -0.38790
N1238       N  0.79437582  0.96400499  0.94112957    -0.38790
N1239       N  0.82473722  0.48595648  0.70771095    -0.38230
N1240       N  0.80067492  0.06248077  0.94594618    -0.38230
C1241       C  0.82043103  0.28849619  0.82777570    -0.04900
C1242       C  0.83696469  0.27888282  0.86659762    -0.02020
C1243       C  0.84035232  0.24471766  0.86627439     0.02970
C1244       C  0.82581295  0.21895098  0.82726663    -0.04900
C1245       C  0.80985774  0.22976700  0.78801839    -0.02010
C1246       C  0.80803777  0.26471785  0.78812025     0.02970
C1247       C  0.85157497  0.30498852  0.90663094     0.37620
C1248       C  0.79675364  0.20686210  0.74590178     0.37610
C1249       C  0.79376919  0.27648014  0.74680239     0.36030
C1250       C  0.85711014  0.23629434  0.90769598     0.36030
N1251       N  0.78307166  0.28572789  0.71335538    -0.38790
N1252       N  0.86953000  0.23192607  0.94308674    -0.38790
N1253       N  0.78703825  0.19198430  0.71001332    -0.38230
N1254       N  0.86323390  0.32581202  0.93842715    -0.38230
C1255       C  0.64340151  0.13968795  0.49948231    -0.04900
C1256       C  0.62848368  0.11079807  0.46440010    -0.02020
C1257       C  0.59442165  0.07373437  0.46987203     0.02970
C1258       C  0.57417010  0.06557357  0.51015216    -0.04900
C1259       C  0.59047825  0.09455871  0.54584197    -0.02010
C1260       C  0.62434652  0.13150436  0.54011071     0.02970
C1261       C  0.64899742  0.11885460  0.42317365     0.37620
C1262       C  0.57610959  0.08556611  0.59077620     0.37610
C1263       C  0.63985812  0.16127134  0.57652299     0.36030
C1264       C  0.58138666  0.04380872  0.43432532     0.36030
N1265       N  0.65201783  0.18479824  0.60566277    -0.38790
N1266       N  0.57205597  0.02062336  0.40533258    -0.38790
N1267       N  0.56798703  0.08007739  0.62823930    -0.38230
N1268       N  0.66540011  0.12535805  0.39032895    -0.38230
C1269       C  0.92173905  0.41803156  0.50597133    -0.04900
C1270       C  0.90472821  0.39695998  0.54560105    -0.02020
C1271       C  0.86693276  0.36298246  0.54234470     0.02970
C1272       C  0.84711460  0.34686734  0.49927647    -0.04900
C1273       C  0.86444398  0.36659610  0.45951049    -0.02010
C1274       C  0.90108329  0.40230301  0.46278419     0.02970
C1275       C  0.92582116  0.40835320  0.59030200     0.37620
C1276       C  0.84532897  0.34923641  0.41499976     0.37610
C1277       C  0.91758408  0.42132142  0.42095760     0.36030
C1278       C  0.84794909  0.34519772  0.58384390     0.36030
N1279       N  0.92891009  0.43452581  0.38602562    -0.38790
N1280       N  0.83278714  0.33124913  0.61688885    -0.38790
N1281       N  0.82989186  0.33504876  0.37970829    -0.38230
N1282       N  0.94032948  0.41494718  0.62733809    -0.38230
C1283       C  0.84703122  0.48695448  0.50292365    -0.04900
C1284       C  0.86856567  0.49576270  0.46412613    -0.02020
C1285       C  0.90611907  0.49856039  0.46695415     0.02970
C1286       C  0.92343325  0.49333080  0.50912043    -0.04900
C1287       C  0.90130201  0.48466434  0.54802305    -0.02010
C1288       C  0.86327148  0.48059174  0.54450889     0.02970
C1289       C  0.85223551  0.50272952  0.42111731     0.37620
C1290       C  0.91683295  0.48068965  0.59283136     0.37610
C1291       C  0.83971985  0.46791307  0.58355755     0.36030
C1292       C  0.92574157  0.50617093  0.42539831     0.36030
N1293       N  0.82046145  0.95721846  0.61422201    -0.38790
N1294       N  0.93871264  0.51176888  0.39029003    -0.38790
N1295       N  0.92639840  0.47763771  0.63032911    -0.38230
N1296       N  0.83887281  0.50814643  0.38700513    -0.38230
C1297       C  0.64874568  0.50349577  0.49334193    -0.04900
C1298       C  0.61266403  0.47318389  0.47189386    -0.02020
C1299       C  0.57845192  0.46001710  0.49474358     0.02970
C1300       C  0.57382662  0.48832491  0.51831464    -0.04900
C1301       C  0.60888216  0.01738537  0.54224385    -0.02010
C1302       C  0.64607357  0.02715160  0.52748837     0.02970
C1303       C  0.61130245  0.44736310  0.43641443     0.37620
C1304       C  0.60734728  0.02764581  0.58852910     0.37610
C1305       C  0.68085239  0.06226613  0.54677997     0.36030
C1306       C  0.57419671  0.42697678  0.52225568     0.36030
N1307       N  0.70845882  0.09068345  0.56168062    -0.38790
N1308       N  0.57386494  0.40197257  0.54456132    -0.38790
N1309       N  0.60761505  0.03429638  0.62672623    -0.38230
N1310       N  0.60966071  0.42612714  0.40849456    -0.38230
C1311       C  0.00577386  0.14367336  0.50647605    -0.04900
C1312       C  0.00108233  0.12352518  0.54821126    -0.02020
C1313       C  0.99686971  0.08548049  0.54966153     0.02970
C1314       C  0.00121515  0.06818354  0.51038525    -0.04900
C1315       C  0.50894281  0.08980775  0.46933307    -0.02010
C1316       C  0.50956813  0.12632676  0.46693969     0.02970
C1317       C  0.00210444  0.14246419  0.59066175     0.37620
C1318       C  0.51633444  0.07504355  0.42884651     0.37610
C1319       C  0.51265766  0.14507674  0.42302925     0.36030
C1320       C  0.99040480  0.06607784  0.59316552     0.36030
N1321       N  0.51488453  0.15989821  0.38796752    -0.38790
N1322       N  0.98695652  0.05416814  0.62991870    -0.38790
N1323       N  0.52236983  0.06475254  0.39541567    -0.38230
N1324       N  0.00308282  0.15748514  0.62454347    -0.38230
C1325       C  0.99289249  0.41474890  0.50591927    -0.04900
C1326       C  0.99185869  0.39316313  0.54538384    -0.02020
C1327       C  0.98516479  0.35437950  0.54151648     0.02970
C1328       C  0.98352196  0.33824292  0.49798614    -0.04900
C1329       C  0.98567168  0.36045376  0.45852850    -0.02010
C1330       C  0.99062914  0.39858812  0.46251494     0.02970
C1331       C  0.00658706  0.41387559  0.58921768     0.37620
C1332       C  0.48305258  0.34433944  0.41358954     0.37610
C1333       C  0.49867729  0.42292090  0.42243191     0.36030
C1334       C  0.98443073  0.33327242  0.58317675     0.36030
N1335       N  0.50584267  0.44161838  0.38977349    -0.38790
N1336       N  0.98387083  0.31665282  0.61652642    -0.38790
N1337       N  0.48104309  0.33163748  0.37769814    -0.38230
N1338       N  0.01987800  0.43067729  0.62382265    -0.38230
C1339       C  0.67695970  0.19978992  0.16543617    -0.04900
C1340       C  0.68091044  0.21723739  0.20837739    -0.02020
C1341       C  0.67571833  0.25013935  0.21179977     0.02970
C1342       C  0.66950118  0.26828412  0.17208404    -0.04900
C1343       C  0.66547942  0.25046025  0.12891888    -0.02010
C1344       C  0.66893335  0.21629520  0.12576083     0.02970
C1345       C  0.69070927  0.20148874  0.24963556     0.37620
C1346       C  0.65617636  0.26549802  0.08719861     0.37610
C1347       C  0.66232840  0.19696421  0.08174368     0.36030
C1348       C  0.67478704  0.26308859  0.25702722     0.36030
N1349       N  0.65685039  0.18140244  0.04673087    -0.38790
N1350       N  0.67395264  0.27070755  0.29454282    -0.38790
N1351       N  0.64849262  0.27525322  0.05218983    -0.38230
N1352       N  0.69838665  0.18911188  0.28265018    -0.38230
C1353       C  0.66816066  0.41749341  0.18084202    -0.04900
C1354       C  0.65466961  0.42860671  0.13993771    -0.02020
C1355       C  0.66094838  0.46741127  0.13494815     0.02970
C1356       C  0.68006754  0.49540123  0.17105997    -0.04900
C1357       C  0.69248884  0.48420625  0.21226967    -0.02010
C1358       C  0.68561379  0.44535599  0.21761393     0.02970
C1359       C  0.63250418  0.39976139  0.10355458     0.37620
C1360       C  0.71231393  0.01285042  0.24963782     0.37610
C1361       C  0.69143078  0.43316419  0.26306107     0.36030
C1362       C  0.64628351  0.47807440  0.09320542     0.36030
N1363       N  0.69413789  0.42459895  0.30062527    -0.38790
N1364       N  0.63455850  0.48654212  0.05991196    -0.38790
N1365       N  0.72820111  0.03568448  0.27935594    -0.38230
N1366       N  0.61445746  0.37737814  0.07400080    -0.38230
C1367       C  0.52958871  0.18693482  0.16874658    -0.04900
C1368       C  0.55148642  0.20278030  0.21139556    -0.01870
C1369       C  0.58317008  0.24206076  0.21479569     0.02970
C1370       C  0.59543495  0.26499531  0.17536308    -0.04900
C1371       C  0.57398840  0.24924001  0.13280747    -0.02010
C1372       C  0.54189273  0.21021632  0.12928857     0.02970
C1373       C  0.53993285  0.18021910  0.25286588     0.37620
C1374       C  0.58152396  0.27456030  0.09363290     0.37610
C1375       C  0.02185876  0.19416616  0.08463592     0.36030
C1376       C  0.59671574  0.26168090  0.25928498     0.36030
N1377       N  0.00600329  0.18146590  0.04898099    -0.38790
N1378       N  0.60568142  0.27758196  0.29459282    -0.38790
N1379       N  0.58611164  0.29403723  0.06187037    -0.38230
N1380       N  0.53095341  0.16225020  0.28597515    -0.38230
C1381       C  0.74199728  0.41747693  0.17873677    -0.04900
C1382       C  0.76877152  0.43475464  0.21793533    -0.02020
C1383       C  0.80531678  0.46980260  0.21476916     0.02970
C1384       C  0.81701613  0.48745105  0.17210062    -0.04900
C1385       C  0.79049541  0.47049679  0.13285226    -0.02010
C1386       C  0.75286351  0.43667725  0.13643060     0.02970
C1387       C  0.75931529  0.41834965  0.26275255     0.37620
C1388       C  0.80228855  0.48676465  0.08815843     0.37610
C1389       C  0.72551797  0.42244988  0.09603731     0.36030
C1390       C  0.83048069  0.48837809  0.25624776     0.36030
N1391       N  0.70487277  0.41270416  0.06270497    -0.38790
N1392       N  0.85074660  0.50332014  0.28904871    -0.38790
N1393       N  0.81166699  0.99951633  0.05244809    -0.38230
N1394       N  0.75459220  0.40855148  0.30027247    -0.38230
C1395       C  0.58954712  0.33959251  0.18708799    -0.04900
C1396       C  0.55233194  0.30706177  0.17203941    -0.02020
C1397       C  0.52434148  0.31426204  0.14761058     0.02970
C1398       C  0.52295109  0.34835122  0.15947744    -0.04900
C1399       C  0.55602520  0.37812899  0.18629589    -0.02010
C1400       C  0.58676247  0.37147910  0.20403960     0.02970
C1401       C  0.53290260  0.27815917  0.20664453     0.37620
C1402       C  0.55872773  0.41549107  0.19679292     0.37610
C1403       C  0.60163542  0.38448197  0.25062440     0.36030
C1404       C  0.99163316  0.28152272  0.12179541     0.36030
N1405       N  0.60997077  0.39339365  0.28890808    -0.38790
N1406       N  0.96565483  0.25504329  0.10149329    -0.38790
N1407       N  0.56123136  0.44553089  0.20481233    -0.38230
N1408       N  0.51568188  0.25590725  0.23430306    -0.38230
C1409       C  0.74271329  0.34318254  0.17291747    -0.04900
C1410       C  0.76569327  0.34114141  0.21174081    -0.02020
C1411       C  0.80105180  0.34097327  0.20698957     0.02970
C1412       C  0.81353233  0.34095586  0.16339464    -0.04900
C1413       C  0.79031789  0.34147448  0.12444604    -0.02010
C1414       C  0.75578412  0.34355847  0.12912936     0.02970
C1415       C  0.75395666  0.33848845  0.25748937     0.37620
C1416       C  0.80255864  0.34104020  0.07929806     0.37610
C1417       C  0.73456157  0.34650468  0.08805985     0.36030
C1418       C  0.82441021  0.33995866  0.24759393     0.36030
N1419       N  0.71951468  0.34888724  0.05352988    -0.38790
N1420       N  0.84342215  0.33959705  0.27967624    -0.38790
N1421       N  0.81216004  0.34045925  0.04329296    -0.38230
N1422       N  0.74800689  0.33613738  0.29564737    -0.38230
O1423       O  0.90179892  0.63706719  0.29956206    -0.80450
O1424       O  0.80811045  0.68693374  0.41470262    -0.65140
O1425       O  0.83463736  0.63555120  0.32672710    -1.11740
C1426       C  0.87136256  0.75392970  0.24406416     1.06440
O1427       O  0.77674721  0.70375028  0.36110567    -0.78350
O1428       O  0.77454737  0.68573848  0.27447183    -0.65930
Ni1429     Ni  0.86498534  0.61100275  0.34489152     1.34870
C1430       C  0.77617294  0.66000988  0.25089513     0.85170
O1431       O  0.79951503  0.61455768  0.41028464    -0.78890
O1432       O  0.82954816  0.58155951  0.39045205    -0.89160
C1433       C  0.78594309  0.70105406  0.40286906     0.84740
O1434       O  0.90171033  0.65050560  0.38823113    -0.67370
O1435       O  0.84614160  0.75622614  0.26648004    -0.86650
C1436       C  0.90020410  0.67642896  0.41164979     0.85570
C1437       C  0.80539175  0.58528200  0.41331182     1.07140
H1438       H  0.86834343  0.72537775  0.34710744     0.38950
O1439       O  0.84390167  0.70466151  0.33249751    -1.09310
O1440       O  0.80681765  0.65690044  0.25078239    -0.65970
Ni1441     Ni  0.85689840  0.67982462  0.28673082     1.26350
O1442       O  0.87107719  0.68216359  0.40875134    -0.66190
O1443       O  0.87880805  0.72562919  0.24800293    -0.78490
C1444       C  0.89164099  0.63751801  0.25755844     0.84960
O1445       O  0.87045731  0.65263560  0.24473744    -0.65660
Ni1446     Ni  0.81238995  0.72795648  0.31413998     1.27450
Ni1447     Ni  0.82160691  0.66025618  0.37222659     1.26060
H1448       H  0.81001760  0.61492773  0.31215991     0.39500
C1449       C  0.70425318  0.84281308  0.17772143     0.02720
C1450       C  0.70355845  0.87870541  0.18128735     0.02720
C1451       C  0.66671719  0.87805589  0.18380192     0.02720
C1452       C  0.62966842  0.84080774  0.18426787     0.02720
C1453       C  0.63155659  0.80514971  0.17869409     0.02720
C1454       C  0.66829552  0.80625289  0.17602487     0.02720
O1455       O  0.70707782  0.61584928  0.23607541    -0.73990
O1456       O  0.61453290  0.56265508  0.15173211    -0.74020
O1457       O  0.66345518  0.54130053  0.19815075    -0.74070
O1458       O  0.65731104  0.63521207  0.19103609    -0.74120
O1459       O  0.69824609  0.65730588  0.13546352    -0.74050
O1460       O  0.69958383  0.55920016  0.13811621    -0.74030
O1461       O  0.65375942  0.58542043  0.09448644    -0.74010
O1462       O  0.74541799  0.63249326  0.17814223    -0.74070
Ni1463     Ni  0.65926938  0.58784623  0.19636653     1.25410
Ni1464     Ni  0.70063987  0.60917835  0.13444447     1.25360
C1465       C  0.74129574  0.63414911  0.22052571     0.88190
C1466       C  0.61930455  0.56663906  0.10888702     0.88120
C1467       C  0.68142054  0.53407339  0.16884768     0.88150
C1468       C  0.67750922  0.66221497  0.16337100     0.88320
O1469       O  0.94856525  0.90916124  0.14572602    -0.73990
O1470       O  0.91008420  0.82215097  0.22806187    -0.74020
O1471       O  0.97868109  0.86651662  0.18732494    -0.74070
O1472       O  0.88140593  0.86567514  0.18667339    -0.74120
O1473       O  0.85496027  0.82017809  0.13068643    -0.74050
O1474       O  0.95619543  0.82685033  0.12603356    -0.74030
O1475       O  0.88895623  0.77939415  0.16941330    -0.74010
O1476       O  0.92036790  0.86633822  0.08697854    -0.74070
Ni1477     Ni  0.93072424  0.86731104  0.18899840     1.25410
Ni1478     Ni  0.90444814  0.82162593  0.12604846     1.25360
C1479       C  0.93887119  0.90184632  0.10292339     0.88190
C1480       C  0.89217571  0.78649887  0.21235726     0.88120
C1481       C  0.98424679  0.84772267  0.15653107     0.88150
C1482       C  0.85183854  0.84234556  0.15959070     0.88320
O1483       O  0.89744390  0.62292104  0.18137254    -0.73990
O1484       O  0.92602386  0.57097623  0.09608060    -0.74020
O1485       O  0.86114153  0.55053737  0.14048661    -0.74070
O1486       O  0.96285002  0.64389902  0.13774049    -0.74120
O1487       O  0.98665552  0.62157403  0.19498239    -0.74050
O1488       O  0.88585189  0.52785858  0.19640837    -0.74030
O1489       O  0.95170990  0.55002395  0.15323860    -0.74010
O1490       O  0.92110128  0.60008982  0.23855491    -0.74070
Ni1491     Ni  0.91116616  0.59793695  0.13673613     1.25410
Ni1492     Ni  0.93714298  0.57408966  0.19783784     1.25360
C1493       C  0.90435955  0.61975402  0.22413893     0.88190
C1494       C  0.94308437  0.55170343  0.11063060     0.88120
C1495       C  0.85666273  0.52367933  0.16923693     0.88150
C1496       C  0.99134855  0.64864968  0.16660613     0.88320
O1497       O  0.92988703  0.70042472  0.48636083    -0.73990
O1498       O  0.52209207  0.76153299  0.56881506    -0.74020
O1499       O  0.96706785  0.77393242  0.52371491    -0.74070
O1500       O  0.98343092  0.68606051  0.53231806    -0.74120
O1501       O  0.52081108  0.70692983  0.47373570    -0.74050
O1502       O  0.50562690  0.79702787  0.46615363    -0.74030
O1503       O  0.55945797  0.78163110  0.50983383    -0.74010
O1504       O  0.96785005  0.72232478  0.42790811    -0.74070
Ni1505     Ni  0.97437430  0.72963838  0.52992249     1.25410
Ni1506     Ni  0.51470234  0.75277242  0.46720219     1.25360
C1507       C  0.93414045  0.70111553  0.44352974     0.88190
C1508       C  0.55577832  0.78242663  0.55248334     0.88120
C1509       C  0.98485298  0.80090095  0.49502572     0.88150
C1510       C  0.00369728  0.68100035  0.50412582     0.88320
O1511       O  0.78608331  0.55931191  0.48688603    -0.73990
O1512       O  0.73279790  0.97035407  0.56484890    -0.74020
O1513       O  0.80555828  0.50893396  0.53069356    -0.74070
O1514       O  0.71476281  0.52137057  0.52168036    -0.74120
O1515       O  0.68949030  0.98073071  0.46141115    -0.74050
O1516       O  0.78148161  0.96845019  0.46975535    -0.74030
O1517       O  0.70892877  0.92946197  0.50422129    -0.74010
O1518       O  0.76149395  0.51810431  0.42646943    -0.74070
Ni1519     Ni  0.76073171  0.51635657  0.52817935     1.25410
Ni1520     Ni  0.73441311  0.97270861  0.46328701     1.25360
C1521       C  0.78278241  0.55295052  0.44377008     0.88190
C1522       C  0.71134118  0.93547164  0.54727069     0.88120
C1523       C  0.80922911  0.98773197  0.50112239     0.88150
C1524       C  0.68655295  0.00266837  0.49089929     0.88320
C1525       C  0.53493901  0.98981963  0.51514187     0.02720
C1526       C  0.99686422  0.95460087  0.51030089     0.02720
C1527       C  0.96116849  0.95605837  0.50964572     0.02720
C1528       C  0.96225716  0.99293170  0.51144557     0.02720
C1529       C  0.99967380  0.52865568  0.51268735     0.02720
C1530       C  0.53575855  0.52720132  0.51427111     0.02720
O1531       O  0.75083735  0.73194823  0.42366095    -0.73990
O1532       O  0.71325152  0.77376058  0.51054809    -0.74020
O1533       O  0.78061622  0.80258534  0.46797463    -0.74070
O1534       O  0.68365715  0.70296468  0.46695909    -0.74120
O1535       O  0.71042543  0.68309631  0.52414120    -0.74050
O1536       O  0.80694962  0.78094849  0.52346905    -0.74030
O1537       O  0.74066569  0.75385728  0.56689832    -0.74010
O1538       O  0.77695718  0.71056799  0.47983865    -0.74070
Ni1539     Ni  0.73115234  0.75351211  0.46513019     1.25410
Ni1540     Ni  0.75964757  0.73133586  0.52553176     1.25360
C1541       C  0.77020531  0.71471191  0.43725079     0.88190
C1542       C  0.72097054  0.77076311  0.55313222     0.88120
C1543       C  0.80963634  0.80821936  0.49647397     0.88150
C1544       C  0.68110074  0.67704005  0.49620878     0.88320
O1545       O  0.90094861  0.92905948  0.95827325    -0.80450
O1546       O  0.55060825  0.52719962  0.08514121    -0.65140
O1547       O  0.96675067  0.99837522  0.99130535    -1.11740
C1548       C  0.54228765  0.95778920  0.91327228     1.06440
O1549       O  0.59226755  0.55848980  0.03312621    -0.78350
O1550       O  0.57480122  0.55543193  0.94364558    -0.65930
Ni1551     Ni  0.91308814  0.96798006  0.00446466     1.34870
C1552       C  0.54583843  0.55373337  0.91909906     0.85170
O1553       O  0.98547477  0.53425327  0.07842646    -0.78890
O1554       O  0.92154433  0.50563149  0.05093977    -0.89160
C1555       C  0.58559111  0.54965508  0.07447253     0.84740
O1556       O  0.91805735  0.93318544  0.04784867    -0.67370
O1557       O  0.57159565  0.98263168  0.93936496    -0.86650
C1558       C  0.94701210  0.93455409  0.07200671     0.85570
C1559       C  0.95076437  0.52938790  0.07796338     1.07140
H1560       H  0.52359075  0.96522989  0.01230431     0.38950
O1561       O  0.52660765  0.98950688  0.99946164    -1.09310
O1562       O  0.51099739  0.52443241  0.91865678    -0.65970
Ni1563     Ni  0.98605961  0.97533609  0.95103005     1.26350
O1564       O  0.98212214  0.96310825  0.07163641    -0.66190
O1565       O  0.50746069  0.95262108  0.91288945    -0.78490
C1566       C  0.90758808  0.93724075  0.91682311     0.84960
O1567       O  0.94246903  0.95990090  0.90596885    -0.65660
Ni1568     Ni  0.58013349  0.52015000  0.98618332     1.27450
Ni1569     Ni  0.50718099  0.51225902  0.03986777     1.26060
H1570       H  0.96999190  0.52273567  0.97843971     0.39500
O1571       O  0.71615494  0.78413805  0.62900083    -0.80450
O1572       O  0.62544854  0.83597996  0.74719333    -0.65140
O1573       O  0.64940283  0.78301492  0.65817591    -1.11740
C1574       C  0.68773384  0.90242544  0.57707309     1.06440
O1575       O  0.59300343  0.85117163  0.69336205    -0.78350
O1576       O  0.58997193  0.83520755  0.60553659    -0.65930
Ni1577     Ni  0.68034260  0.75896080  0.67542221     1.34870
C1578       C  0.59083856  0.80871469  0.58251734     0.85170
O1579       O  0.61639681  0.76297813  0.74357822    -0.78890
O1580       O  0.64626481  0.73022885  0.72247132    -0.89160
C1581       C  0.60386901  0.85074067  0.73514101     0.84740
O1582       O  0.71834377  0.79985222  0.71633560    -0.67370
O1583       O  0.66285398  0.90552040  0.59939742    -0.86650
C1584       C  0.71780341  0.82641358  0.73943870     0.85570
C1585       C  0.62249154  0.73377670  0.74626430     1.07140
H1586       H  0.68401341  0.87307422  0.67796356     0.38950
O1587       O  0.65922625  0.85231874  0.66396963    -1.09310
O1588       O  0.62092025  0.80459518  0.58298413    -0.65970
Ni1589     Ni  0.67129495  0.82712939  0.61806247     1.26350
O1590       O  0.68813992  0.83115210  0.73893309    -0.66190
O1591       O  0.69338449  0.87295404  0.57984814    -0.78490
C1592       C  0.70616930  0.78567054  0.58725293     0.84960
O1593       O  0.68405568  0.79988199  0.57532763    -0.65660
Ni1594     Ni  0.62834735  0.87637986  0.64639737     1.27450
Ni1595     Ni  0.63763986  0.80836815  0.70441484     1.26060
H1596       H  0.62456913  0.76236702  0.64412981     0.39500
O1597       O  0.74825832  0.85096217  0.81281909    -0.73990
O1598       O  0.83944017  0.90056704  0.89671473    -0.74020
O1599       O  0.79141084  0.92365163  0.85264533    -0.74070
O1600       O  0.79727099  0.82892193  0.85598854    -0.74120
O1601       O  0.83653497  0.85092652  0.79859387    -0.74050
O1602       O  0.83027337  0.94455319  0.79546300    -0.74030
O1603       O  0.87893679  0.92270509  0.83967796    -0.74010
O1604       O  0.78674408  0.87091093  0.75478718    -0.74070
Ni1605     Ni  0.79269196  0.87535184  0.85657730     1.25410
Ni1606     Ni  0.83439132  0.89815962  0.79491260     1.25360
C1607       C  0.75256821  0.85125692  0.77023722     0.88190
C1608       C  0.87396303  0.91934984  0.88244971     0.88120
C1609       C  0.81096238  0.95043855  0.82419623     0.88150
C1610       C  0.81793387  0.82460825  0.82761924     0.88320
C1611       C  0.78927472  0.64415772  0.82760637     0.02720
C1612       C  0.82588617  0.68034761  0.82776035     0.02720
C1613       C  0.86212354  0.68002685  0.82787308     0.02720
C1614       C  0.86184154  0.64318589  0.82912558     0.02720
C1615       C  0.82489937  0.60681303  0.82905920     0.02720
C1616       C  0.78873621  0.60744904  0.82754168     0.02720
O1617       O  0.54325512  0.57947251  0.84567792    -0.73990
O1618       O  0.58375801  0.66595522  0.76288383    -0.74020
O1619       O  0.61086264  0.62153902  0.80540421    -0.74070
O1620       O  0.51509414  0.62386804  0.80339209    -0.74120
O1621       O  0.53886852  0.66347848  0.86525283    -0.74050
O1622       O  0.63793781  0.66830357  0.85957841    -0.74030
O1623       O  0.60495903  0.70923825  0.82105054    -0.74010
O1624       O  0.57313232  0.62242502  0.90406191    -0.74070
Ni1625     Ni  0.56213147  0.62121140  0.80221331     1.25410
Ni1626     Ni  0.58938935  0.66737362  0.86474385     1.25360
C1627       C  0.55378556  0.58676110  0.88834188     0.88190
C1628       C  0.60177207  0.70168124  0.77824058     0.88120
C1629       C  0.64069479  0.64517467  0.83199089     0.88150
C1630       C  0.51106490  0.64365009  0.83435548     0.88320
O1631       O  0.57243171  0.88563840  0.75463297    -0.73990
O1632       O  0.54104158  0.93539949  0.83879855    -0.74020
O1633       O  0.60666619  0.95838248  0.79433572    -0.74070
O1634       O  0.50779223  0.86243208  0.80025344    -0.74120
O1635       O  0.53476195  0.84284226  0.85671220    -0.74050
O1636       O  0.63227870  0.93794888  0.85221744    -0.74030
O1637       O  0.56779662  0.91616155  0.89659637    -0.74010
O1638       O  0.59935973  0.86600929  0.81180458    -0.74070
Ni1639     Ni  0.55600892  0.91115979  0.79491131     1.25410
Ni1640     Ni  0.58431245  0.88997314  0.85648315     1.25360
C1641       C  0.59102298  0.86784660  0.76902966     0.88190
C1642       C  0.55009697  0.93477033  0.88145564     0.88120
C1643       C  0.63557598  0.96379321  0.82284964     0.88150
C1644       C  0.50526142  0.83609123  0.82881920     0.88320
C1645       C  0.90038024  0.64279203  0.83039894    -0.04900
C1646       C  0.91434688  0.62982234  0.86967449    -0.02020
C1647       C  0.95050274  0.63014337  0.87092005     0.02970
C1648       C  0.97366689  0.64398416  0.83362465    -0.04900
C1649       C  0.96084753  0.65752895  0.79493032    -0.02010
C1650       C  0.92432148  0.65638408  0.79283712     0.02970
C1651       C  0.89427848  0.61902607  0.91108733     0.37620
C1652       C  0.98595191  0.67358568  0.75728535     0.37610
C1653       C  0.91164819  0.66719250  0.75011146     0.36030
C1654       C  0.46393745  0.61592414  0.91076955     0.36030
N1655       N  0.90420589  0.67463855  0.71361113    -0.38790
N1656       N  0.47464555  0.60463845  0.94249048    -0.38790
N1657       N  0.00602393  0.68654430  0.72746834    -0.38230
N1658       N  0.88236792  0.61215669  0.94684299    -0.38230
C1659       C  0.67884572  0.64562440  0.83065287    -0.04900
C1660       C  0.70687795  0.65875122  0.86901154    -0.02020
C1661       C  0.74255119  0.65848329  0.86782398     0.02970
C1662       C  0.75106125  0.64481617  0.82840916    -0.04900
C1663       C  0.72283345  0.63182237  0.79001486    -0.02010
C1664       C  0.68738871  0.63253473  0.79098240     0.02970
C1665       C  0.69890768  0.67147136  0.91094464     0.37620
C1666       C  0.72986376  0.61933718  0.74764510     0.37610
C1667       C  0.66038667  0.62073295  0.74986466     0.36030
C1668       C  0.76863706  0.66997984  0.90926373     0.36030
N1669       N  0.63909343  0.61114930  0.71703052    -0.38790
N1670       N  0.78639042  0.67795828  0.94458487    -0.38790
N1671       N  0.73261535  0.61029095  0.71156430    -0.38230
N1672       N  0.69293628  0.68177311  0.94442743    -0.38230
C1673       C  0.74958777  0.56935808  0.82643201    -0.04900
C1674       C  0.73359549  0.54481731  0.78640978    -0.02020
C1675       C  0.69562231  0.51104159  0.78468497     0.02970
C1676       C  0.67372554  0.50063493  0.82305442    -0.04900
C1677       C  0.68968290  0.52367788  0.86335850    -0.02010
C1678       C  0.72693448  0.55809630  0.86493173     0.02970
C1679       C  0.75408165  0.55447948  0.74527856     0.37620
C1680       C  0.66797246  0.51165263  0.90398387     0.37610
C1681       C  0.74149287  0.58009282  0.90769314     0.36030
C1682       C  0.67940389  0.98615096  0.74368789     0.36030
N1683       N  0.75047522  0.59426914  0.94394314    -0.38790
N1684       N  0.66650996  0.96632294  0.71107260    -0.38790
N1685       N  0.65162734  0.50230486  0.93698326    -0.38230
N1686       N  0.76690269  0.56028496  0.71004694    -0.38230
C1687       C  0.90037765  0.71904429  0.82708574    -0.04900
C1688       C  0.90804592  0.74387421  0.78866625    -0.02020
C1689       C  0.94111364  0.78234241  0.78979373     0.02970
C1690       C  0.96841521  0.79653609  0.82882874    -0.04900
C1691       C  0.96150568  0.77142216  0.86684760    -0.02010
C1692       C  0.92799474  0.73322725  0.86590258     0.02970
C1693       C  0.88400540  0.72987255  0.74589172     0.37620
C1694       C  0.48805027  0.78482591  0.90833747     0.37610
C1695       C  0.92159679  0.71059445  0.90718341     0.36030
C1696       C  0.94698466  0.80660041  0.74957167     0.36030
N1697       N  0.91890745  0.69645192  0.94271155    -0.38790
N1698       N  0.95118852  0.82565815  0.71744851    -0.38790
N1699       N  0.50904657  0.79502612  0.94142115    -0.38230
N1700       N  0.86817358  0.72110182  0.70955597    -0.38230
C1701       C  0.82332218  0.56735594  0.82902682    -0.04900
C1702       C  0.81167066  0.54230354  0.86738061    -0.02020
C1703       C  0.80798132  0.50451616  0.86610579     0.02970
C1704       C  0.81296894  0.98963555  0.82539337    -0.04900
C1705       C  0.82292040  0.01386264  0.78657678    -0.02010
C1706       C  0.83025425  0.55295475  0.78916611     0.02970
C1707       C  0.80511222  0.55501549  0.90986699     0.37620
C1708       C  0.82400538  0.99826043  0.74274479     0.37610
C1709       C  0.84270873  0.57665728  0.74882993     0.36030
C1710       C  0.80033115  0.48178451  0.90776119     0.36030
N1711       N  0.85097126  0.59204225  0.71410495    -0.38790
N1712       N  0.79437582  0.46400501  0.94112958    -0.38790
N1713       N  0.82473737  0.98595656  0.70771097    -0.38230
N1714       N  0.80067496  0.56248081  0.94594618    -0.38230
C1715       C  0.82043106  0.78849621  0.82777569    -0.04900
C1716       C  0.83696470  0.77888281  0.86659761    -0.02020
C1717       C  0.84035231  0.74471765  0.86627437     0.02970
C1718       C  0.82581295  0.71895098  0.82726661    -0.04900
C1719       C  0.80985775  0.72976701  0.78801836    -0.02010
C1720       C  0.80803780  0.76471787  0.78812023     0.02970
C1721       C  0.85157496  0.80498850  0.90663094     0.37620
C1722       C  0.79675364  0.70686212  0.74590175     0.37610
C1723       C  0.79376923  0.77648018  0.74680238     0.36030
C1724       C  0.85711011  0.73629431  0.90769596     0.36030
N1725       N  0.78307171  0.78572794  0.71335537    -0.38790
N1726       N  0.86952996  0.73192602  0.94308672    -0.38790
N1727       N  0.78703825  0.69198433  0.71001329    -0.38230
N1728       N  0.86323389  0.82581199  0.93842716    -0.38230
C1729       C  0.64340148  0.63968798  0.49948234    -0.04900
C1730       C  0.62848366  0.61079809  0.46440014    -0.02020
C1731       C  0.59442165  0.57373438  0.46987209     0.02970
C1732       C  0.57417010  0.56557359  0.51015223    -0.04900
C1733       C  0.59047824  0.59455874  0.54584202    -0.02010
C1734       C  0.62434649  0.63150440  0.54011074     0.02970
C1735       C  0.64899740  0.61885461  0.42317369     0.37620
C1736       C  0.57610959  0.58556614  0.59077625     0.37610
C1737       C  0.63985810  0.66127139  0.57652300     0.36030
C1738       C  0.58138668  0.54380871  0.43432541     0.36030
N1739       N  0.65201781  0.68479830  0.60566278    -0.38790
N1740       N  0.57205603  0.52062334  0.40533269    -0.38790
N1741       N  0.56798703  0.58007743  0.62823935    -0.38230
N1742       N  0.66540009  0.62535805  0.39032899    -0.38230
C1743       C  0.92173903  0.91803156  0.50597122    -0.04900
C1744       C  0.90472822  0.89695996  0.54560093    -0.02020
C1745       C  0.86693277  0.86298245  0.54234460     0.02970
C1746       C  0.84711459  0.84686733  0.49927638    -0.04900
C1747       C  0.86444395  0.86659610  0.45951038    -0.02010
C1748       C  0.90108326  0.90230301  0.46278408     0.02970
C1749       C  0.92582120  0.90835316  0.59030187     0.37620
C1750       C  0.84532893  0.84923641  0.41499966     0.37610
C1751       C  0.91758403  0.92132145  0.42095749     0.36030
C1752       C  0.84794912  0.84519770  0.58384381     0.36030
N1753       N  0.92891002  0.93452585  0.38602551    -0.38790
N1754       N  0.83278719  0.83124911  0.61688876    -0.38790
N1755       N  0.82989180  0.83504875  0.37970820    -0.38230
N1756       N  0.94032955  0.91494714  0.62733794    -0.38230
C1757       C  0.84703122  0.98695450  0.50292362    -0.04900
C1758       C  0.86856568  0.99576273  0.46412611    -0.02020
C1759       C  0.90611907  0.99856042  0.46695411     0.02970
C1760       C  0.92343324  0.99333080  0.50912038    -0.04900
C1761       C  0.90130200  0.98466431  0.54802301    -0.02010
C1762       C  0.86327148  0.98059174  0.54450886     0.02970
C1763       C  0.85223552  0.00272959  0.42111731     0.37620
C1764       C  0.91683293  0.98068958  0.59283129     0.37610
C1765       C  0.83971985  0.96791307  0.58355752     0.36030
C1766       C  0.92574158  0.00617098  0.42539828     0.36030
N1767       N  0.82046145  0.45721845  0.61422204    -0.38790
N1768       N  0.93871265  0.01176896  0.39029000    -0.38790
N1769       N  0.92639836  0.97763760  0.63032904    -0.38230
N1770       N  0.83887281  0.00814653  0.38700515    -0.38230
C1771       C  0.64874571  0.00349587  0.49334186    -0.04900
C1772       C  0.61266409  0.97318409  0.47189360    -0.02020
C1773       C  0.57845193  0.96001719  0.49474325     0.02970
C1774       C  0.57382659  0.98832489  0.51831449    -0.04900
C1775       C  0.60888222  0.51738546  0.54224386    -0.02010
C1776       C  0.64607359  0.52715164  0.52748832     0.02970
C1777       C  0.61130257  0.94736348  0.43641397     0.37620
C1778       C  0.60734744  0.52764600  0.58852911     0.37610
C1779       C  0.68085245  0.56226624  0.54677973     0.36030
C1780       C  0.57419668  0.92697675  0.52225514     0.36030
N1781       N  0.70845889  0.59068361  0.56168023    -0.38790
N1782       N  0.57386490  0.90197245  0.54456062    -0.38790
N1783       N  0.60761531  0.53429664  0.62672623    -0.38230
N1784       N  0.60966089  0.92612767  0.40849395    -0.38230
C1785       C  0.00577385  0.64367336  0.50647598    -0.04900
C1786       C  0.00108235  0.62352521  0.54821122    -0.02020
C1787       C  0.99686972  0.58548052  0.54966152     0.02970
C1788       C  0.00121515  0.56818354  0.51038526    -0.04900
C1789       C  0.50894281  0.58980774  0.46933306    -0.02010
C1790       C  0.50956813  0.62632674  0.46693965     0.02970
C1791       C  0.00210449  0.64246426  0.59066169     0.37620
C1792       C  0.51633444  0.57504351  0.42884652     0.37610
C1793       C  0.51265768  0.64507672  0.42302919     0.36030
C1794       C  0.99040482  0.56607791  0.59316553     0.36030
N1795       N  0.51488457  0.65989816  0.38796744    -0.38790
N1796       N  0.98695655  0.55416823  0.62991872    -0.38790
N1797       N  0.52236983  0.56475248  0.39541570    -0.38230
N1798       N  0.00308289  0.65748523  0.62454340    -0.38230
C1799       C  0.99289248  0.91474890  0.50591915    -0.04900
C1800       C  0.99185874  0.89316316  0.54538374    -0.02020
C1801       C  0.98516482  0.85437952  0.54151640     0.02970
C1802       C  0.98352193  0.83824290  0.49798605    -0.04900
C1803       C  0.98567159  0.86045371  0.45852840    -0.02010
C1804       C  0.99062907  0.89858808  0.46251483     0.02970
C1805       C  0.00658718  0.91387566  0.58921755     0.37620
C1806       C  0.48305244  0.84433936  0.41358944     0.37610
C1807       C  0.49867720  0.92292085  0.42243178     0.36030
C1808       C  0.98443081  0.83327246  0.58317667     0.36030
N1809       N  0.50584258  0.94161832  0.38977335    -0.38790
N1810       N  0.98387095  0.81665289  0.61652634    -0.38790
N1811       N  0.48104292  0.83163738  0.37769804    -0.38230
N1812       N  0.01987816  0.93067738  0.62382250    -0.38230
C1813       C  0.67695967  0.69978994  0.16543617    -0.04900
C1814       C  0.68091084  0.71723760  0.20837738    -0.02020
C1815       C  0.67571885  0.75013963  0.21179987     0.02970
C1816       C  0.66950112  0.76828413  0.17208421    -0.04900
C1817       C  0.66547883  0.75045998  0.12891906    -0.02010
C1818       C  0.66893286  0.71629499  0.12576093     0.02970
C1819       C  0.69070987  0.70148900  0.24963546     0.37620
C1820       C  0.65617516  0.76549743  0.08719891     0.37610
C1821       C  0.66232751  0.69696381  0.08174381     0.36030
C1822       C  0.67478822  0.76308917  0.25702741     0.36030
N1823       N  0.65684920  0.68140188  0.04673105    -0.38790
N1824       N  0.67395432  0.77070827  0.29454311    -0.38790
N1825       N  0.64849096  0.77525238  0.05219021    -0.38230
N1826       N  0.69838737  0.68911217  0.28265002    -0.38230
C1827       C  0.66816105  0.91749363  0.18084200    -0.04900
C1828       C  0.65467048  0.92860715  0.13993752    -0.02020
C1829       C  0.66094929  0.96741173  0.13494805     0.02970
C1830       C  0.68006807  0.99540149  0.17106012    -0.04900
C1831       C  0.69248899  0.98420630  0.21226995    -0.02010
C1832       C  0.68561385  0.94535600  0.21761411     0.02970
C1833       C  0.63250532  0.89976201  0.10355417     0.37620
C1834       C  0.71231412  0.51285057  0.24963730     0.37610
C1835       C  0.69143013  0.93316382  0.26306131     0.36030
C1836       C  0.64628477  0.97807504  0.09320519     0.36030
N1837       N  0.69413653  0.92459808  0.30062544    -0.38790
N1838       N  0.63456004  0.98654290  0.05991162    -0.38790
N1839       N  0.72820156  0.53568479  0.27935523    -0.38230
N1840       N  0.61445882  0.87737897  0.07400014    -0.38230
C1841       C  0.52958849  0.68693499  0.16874650    -0.04900
C1842       C  0.55148650  0.70278016  0.21139542    -0.01870
C1843       C  0.58317035  0.74206054  0.21479567     0.02970
C1844       C  0.59543490  0.76499543  0.17536325    -0.04900
C1845       C  0.57398799  0.74924046  0.13280772    -0.02010
C1846       C  0.54189228  0.71021678  0.12928867     0.02970
C1847       C  0.53993316  0.68021871  0.25286560     0.37620
C1848       C  0.58152336  0.77456097  0.09363340     0.37610
C1849       C  0.02185807  0.69416695  0.08463602     0.36030
C1850       C  0.59671655  0.76168027  0.25928516     0.36030
N1851       N  0.00600242  0.68146696  0.04898109    -0.38790
N1852       N  0.60568250  0.77758100  0.29459323    -0.38790
N1853       N  0.58611090  0.79403799  0.06187098    -0.38230
N1854       N  0.53095391  0.66224964  0.28597478    -0.38230
C1855       C  0.74199743  0.91747694  0.17873684    -0.04900
C1856       C  0.76877148  0.93475495  0.21793550    -0.02020
C1857       C  0.80531675  0.96980290  0.21476929     0.02970
C1858       C  0.81701626  0.98745109  0.17210069    -0.04900
C1859       C  0.79049574  0.97049658  0.13285225    -0.02010
C1860       C  0.75286386  0.93667700  0.13643055     0.02970
C1861       C  0.75931510  0.91835027  0.26275281     0.37620
C1862       C  0.80228908  0.98676425  0.08815840     0.37610
C1863       C  0.72551853  0.92244938  0.09603711     0.36030
C1864       C  0.83048049  0.98837867  0.25624790     0.36030
N1865       N  0.70487351  0.91270350  0.06270464    -0.38790
N1866       N  0.85074631  0.00332097  0.28904883    -0.38790
N1867       N  0.81166630  0.49951687  0.05244813    -0.38230
N1868       N  0.75459194  0.90855236  0.30027281    -0.38230
C1869       C  0.58954719  0.83959283  0.18708821    -0.04900
C1870       C  0.55233175  0.80706135  0.17204187    -0.02020
C1871       C  0.52434043  0.81426027  0.14761277     0.02970
C1872       C  0.52295061  0.84835034  0.15947674    -0.04900
C1873       C  0.55602530  0.87812944  0.18629304    -0.02010
C1874       C  0.58676269  0.87148016  0.20403778     0.02970
C1875       C  0.53290384  0.77815999  0.20664862     0.37620
C1876       C  0.55872797  0.91549205  0.19678746     0.37610
C1877       C  0.60163494  0.88448393  0.25062250     0.36030
C1878       C  0.99163115  0.78151950  0.12180051     0.36030
N1879       N  0.60996974  0.89339646  0.28890600    -0.38790
N1880       N  0.96565207  0.75503899  0.10150068    -0.38790
N1881       N  0.56123168  0.94553226  0.20480481    -0.38230
N1882       N  0.51568422  0.75590898  0.23430840    -0.38230
C1883       C  0.74271330  0.84318251  0.17291760    -0.04900
C1884       C  0.76569367  0.84114207  0.21174096    -0.02020
C1885       C  0.80105227  0.84097408  0.20698969     0.02970
C1886       C  0.81353245  0.84095600  0.16339473    -0.04900
C1887       C  0.79031762  0.84147395  0.12444612    -0.02010
C1888       C  0.75578382  0.84355788  0.12912946     0.02970
C1889       C  0.75395734  0.83848958  0.25748958     0.37620
C1890       C  0.80255800  0.84103903  0.07929811     0.37610
C1891       C  0.73456095  0.84650350  0.08805990     0.36030
C1892       C  0.82441109  0.83996029  0.24759410     0.36030
N1893       N  0.71951382  0.84888562  0.05352989    -0.38790
N1894       N  0.84342337  0.83959936  0.27967643    -0.38790
N1895       N  0.81215909  0.84045758  0.04329297    -0.38230
N1896       N  0.74800782  0.83613885  0.29564764    -0.38230
loop_ 
_geom_bond_atom_site_label_1 
_geom_bond_atom_site_label_2 
_geom_bond_distance 
_geom_bond_site_symmetry_2 
_ccdc_geom_bond_type 
O1           Ni7   1.919       .  S
O1           C22   1.268       .  A
O2          Ni25   1.913       .  S
O2           C11   1.267       .  A
O3           Ni7   1.908       .  S
O3          Ni25   1.914       .  S
O3          Ni19   1.922       .  S
O3           H26   0.967       .  S
C4           O21   1.279       .  A
C4           O13   1.275       .  A
C4           C58   1.477       .  S
O5          Ni24   1.921       .  S
O5           C11   1.267       .  A
O6          Ni24   1.908       .  S
O6            C8   1.267       .  A
Ni7          O10   1.919       .  S
Ni7          O12   1.910       .  S
C8           O18   1.269       .  A
C8           C43   1.466       .  S
O9          Ni25   1.924       .  S
O9           C15   1.276       .  A
O10          C15   1.274       .  A
C11         C119   1.467       .  S
O12          C14   1.268       .  A
O13         Ni24   1.925       .  S
C14          O20   1.268       .  A
C14          C85   1.461       .  S
C15          C99   1.462       .  S
H16          O17   0.965       .  S
O17         Ni25   1.920       .  S
O17         Ni19   1.922       .  S
O17         Ni24   1.909       .  S
O18         Ni19   1.929       .  S
Ni19         O23   1.919       .  S
Ni19         O21   1.938       .  S
O20         Ni25   1.921       .  S
C22          O23   1.270       .  A
C22          C71   1.471       .  S
C27         C461   1.522       .  S
C27          C28   1.424       .  A
C27          C32   1.417       .  A
C28         C433   1.517       .  S
C28          C29   1.443       .  A
C29         C405   1.515       .  S
C29          C30   1.455       .  A
C30         C447   1.562       .  S
C30          C31   1.447       .  A
C31         C422   1.496       .  S
C31          C32   1.431       .  A
C32         C394   1.517       .  S
O33         Ni41   1.930       .  S
O33          C43   1.284       .  A
O34         Ni41   1.930       .  S
O34          C44   1.283       .  A
O35         Ni41   1.907       .  S
O35          C45   1.279       .  A
O36         Ni41   1.894       .  S
O36          C46   1.277       .  A
O37         Ni42   1.932       .  S
O37          C46   1.285       .  A
O38         Ni42   1.934       .  S
O38          C45   1.284       .  A
O39         Ni42   1.900       .  S
O39          C44   1.278       .  A
O40         Ni42   1.910       .  S
O40          C43   1.277       .  A
Ni41        Ni42   2.389       .  S
C44         C133   1.465       .  S
C45         C882   1.486   1_545  S
C46         C391   1.483       .  S
O47         Ni55   1.918       .  S
O47          C57   1.280       .  A
O48         Ni55   1.926       .  S
O48          C58   1.283       .  A
O49         Ni55   1.905       .  S
O49          C59   1.279       .  A
O50         Ni55   1.902       .  S
O50          C60   1.279       .  A
O51         Ni56   1.933       .  S
O51          C60   1.285       .  A
O52         Ni56   1.939       .  S
O52          C59   1.286       .  A
O53         Ni56   1.933       .  S
O53          C58   1.282       .  A
O54         Ni56   1.920       .  S
O54          C57   1.281       .  A
Ni55        Ni56   2.384       .  S
C57         C136   1.464       .  S
C59        C1398   1.504       .  S
C60         C464   1.492       .  S
O61         Ni69   1.918       .  S
O61          C71   1.280       .  A
O62         Ni69   1.918       .  S
O62          C72   1.281       .  A
O63         Ni69   1.919       .  S
O63          C73   1.281       .  A
O64         Ni69   1.920       .  S
O64          C74   1.284       .  A
O65         Ni70   1.907       .  S
O65          C74   1.279       .  A
O66         Ni70   1.915       .  S
O66          C73   1.282       .  A
O67         Ni70   1.914       .  S
O67          C72   1.278       .  A
O68         Ni70   1.922       .  S
O68          C71   1.283       .  A
Ni69        Ni70   2.386       .  S
C72         C137   1.460       .  S
C73         C910   1.498   1_545  S
C74        C1367   1.495       .  S
O75         Ni83   1.923       .  S
O75          C85   1.282       .  A
O76       Ni1031   1.935   1_455  S
O76          C86   1.285       .  A
O77         Ni83   1.894       .  S
O77          C87   1.275       .  A
O78         Ni83   1.906       .  S
O78          C88   1.280       .  A
O79         Ni84   1.927       .  S
O79        C1036   1.284       .  A
O80         Ni84   1.933       .  S
O80        C1035   1.287   1_455  A
O81         Ni84   1.910       .  S
O81          C86   1.277       .  A
O82       Ni1032   1.912       .  S
O82          C85   1.278       .  A
Ni83       O1024   1.935       .  S
Ni83      Ni1032   2.386       .  S
Ni84       O1030   1.912   1_455  S
Ni84      Ni1031   2.386   1_455  S
C86         C156   1.468       .  S
C87        O1028   1.287       .  A
C87         C380   1.492       .  S
C88        O1027   1.284       .  A
C88         C363   1.502       .  S
O89         Ni97   1.925       .  S
O89          C99   1.281       .  A
O90        Ni571   1.929       .  S
O90         C100   1.284       .  A
O91         Ni97   1.918       .  S
O91         C575   1.281   1_545  A
O92         Ni97   1.906       .  S
O92         C576   1.278       .  A
O93         Ni98   1.937       .  S
O93         C102   1.286       .  A
O94         Ni98   1.932       .  S
O94         C101   1.284       .  A
O95         Ni98   1.926       .  S
O95         C100   1.280       .  A
O96        Ni572   1.912   1_545  S
O96          C99   1.279       .  A
Ni97        O564   1.929   1_545  S
Ni97       Ni572   2.385   1_545  S
Ni98        O570   1.912       .  S
Ni98       Ni571   2.385       .  S
C100        C152   1.474       .  S
C101        O565   1.281       .  A
C101        C335   1.497       .  S
C102        O566   1.278       .  A
C102        C349   1.509       .  S
C103        C352   1.553       .  S
C103       C1052   1.436   1_455  A
C103        C582   1.445       .  A
C104        C377   1.494       .  S
C104        C105   1.430       .  A
C104       C1051   1.436       .  A
C105        C321   1.514       .  S
C105        C106   1.423       .  A
C106        C338   1.529       .  S
C106        C581   1.431       .  A
C107        C366   1.516       .  S
C107        C580   1.431   1_545  A
C107       C1056   1.444       .  A
C108        C310   1.515       .  S
C108        C577   1.445   1_545  A
C108       C1055   1.444   1_455  A
O109       Ni117   1.913       .  S
O109        C119   1.281       .  A
O110       Ni117   1.917       .  S
O110        C120   1.279       .  A
O111       Ni117   1.925       .  S
O111        C121   1.283       .  A
O112       Ni117   1.925       .  S
O112        C122   1.282       .  A
O113       Ni118   1.906       .  S
O113        C122   1.279       .  A
O114       Ni118   1.902       .  S
O114        C121   1.279       .  A
O115       Ni118   1.917       .  S
O115        C120   1.283       .  A
O116       Ni118   1.921       .  S
O116        C119   1.281       .  A
Ni117      Ni118   2.391       .  S
C120        C170   1.467       .  S
C121        C324   1.488       .  S
C122        C307   1.478       .  S
O123       Ni129   1.912   1_556  S
O123        C144   1.267       .  A
O124       Ni147   1.919       .  S
O124        C133   1.267       .  A
O125       Ni129   1.899   1_556  S
O125       Ni141   1.918       .  S
O125      Ni1569   1.910   1_556  S
O125        H622   0.967       .  S
C126        O143   1.278       .  A
C126        O135   1.275       .  A
C126        C220   1.465       .  S
O127       Ni146   1.913   1_554  S
O127        C133   1.267       .  A
O128       Ni146   1.915       .  S
O128        C130   1.268       .  A
Ni129       O134   1.910       .  S
Ni129       O606   1.919       .  S
C130        O140   1.270       .  A
C130        C205   1.471       .  S
O131      Ni1095   1.923       .  S
O131        C137   1.278       .  A
O132       Ni603   1.919   1_545  S
O132        C137   1.276       .  A
O134        C136   1.267       .  A
O135       Ni620   1.921       .  S
C136        O142   1.268       .  A
H138        O139   0.966   1_554  S
O139       Ni621   1.916   1_556  S
O139      Ni1089   1.909   1_455  S
O139       Ni620   1.897       .  S
O140      Ni1563   1.930   1_445  S
Ni141       O145   1.917       .  S
Ni141      O1562   1.930       .  S
Ni141      O1091   1.927       .  S
Ni141      O1087   1.909       .  S
O142      Ni1569   1.923       .  S
O143      Ni1089   1.927   1_455  S
C144        O145   1.267       .  A
C144        C186   1.463       .  S
Ni146       O609   1.921   1_545  S
Ni146       O613   1.897   1_545  S
Ni147      O1079   1.923   1_455  S
Ni147      O1564   1.923   1_445  S
Ni147      O1547   1.910   1_444  S
Ni147       O613   1.916   1_544  S
H148        O599   0.967   1_545  S
O149       Ni155   1.917       .  S
O149        C170   1.266       .  A
O150       Ni173   1.915       .  S
O150        C159   1.268       .  A
O151       Ni155   1.907       .  S
O151       Ni173   1.918       .  S
O151       Ni167   1.919       .  S
O151        H174   0.966       .  S
C152        O169   1.278       .  A
C152        O161   1.277       .  A
O153       Ni172   1.920       .  S
O153        C159   1.268       .  A
O154       Ni172   1.915       .  S
O154        C156   1.268       .  A
Ni155       O158   1.921       .  S
Ni155       O160   1.907       .  S
C156        O166   1.269       .  A
O157       Ni173   1.934       .  S
O157        C163   1.278       .  A
O158        C163   1.275       .  A
C159        C219   1.467       .  S
O160        C162   1.265       .  A
O161       Ni172   1.931       .  S
C162        O168   1.267       .  A
C162        C185   1.461       .  S
C163        C206   1.471       .  S
H164        O165   0.966       .  S
O165       Ni173   1.920       .  S
O165       Ni167   1.913       .  S
O165       Ni172   1.907       .  S
O166       Ni167   1.926       .  S
Ni167       O171   1.917       .  S
Ni167       O169   1.930       .  S
O168       Ni173   1.922       .  S
C170        O171   1.268       .  A
O175       Ni183   1.905       .  S
O175        C185   1.276       .  A
O176       Ni183   1.902       .  S
O176        C186   1.279       .  A
O177       Ni183   1.915       .  S
O177        C187   1.281       .  A
O178       Ni183   1.913       .  S
O178        C188   1.281       .  A
O179       Ni184   1.890       .  S
O179        C188   1.275       .  A
O180       Ni184   1.901       .  S
O180        C187   1.279       .  A
O181       Ni184   1.926       .  S
O181        C186   1.282       .  A
O182       Ni184   1.930       .  S
O182        C185   1.284       .  A
Ni183      Ni184   2.391       .  S
C187        C282   1.496       .  S
C188        C293   1.463       .  S
C189        C240   1.516       .  S
C189        C190   1.425       .  A
C189        C194   1.425       .  A
C190        C296   1.511       .  S
C190        C191   1.430       .  A
C191        C265   1.514       .  S
C191        C192   1.435       .  A
C192        C223   1.519       .  S
C192        C193   1.435       .  A
C193        C279   1.513       .  S
C193        C194   1.430       .  A
C194        C251   1.511       .  S
O195       Ni203   1.919       .  S
O195        C205   1.280       .  A
O196       Ni203   1.921       .  S
O196        C206   1.282       .  A
O197       Ni203   1.902       .  S
O197        C207   1.279       .  A
O198       Ni203   1.905       .  S
O198        C208   1.279       .  A
O199       Ni204   1.914       .  S
O199        C208   1.280       .  A
O200       Ni204   1.908       .  S
O200        C207   1.280       .  A
O201       Ni204   1.929       .  S
O201        C206   1.281       .  A
O202       Ni204   1.930       .  S
O202        C205   1.283       .  A
Ni203      Ni204   2.384       .  S
C207        C237   1.494       .  S
C208       C1174   1.474   1_455  S
O209       Ni217   1.910       .  S
O209        C219   1.280       .  A
O210       Ni217   1.913       .  S
O210        C220   1.277       .  A
O211       Ni217   1.921       .  S
O211        C221   1.283       .  A
O212       Ni217   1.913       .  S
O212        C222   1.281       .  A
O213       Ni218   1.895       .  S
O213        C222   1.277       .  A
O214       Ni218   1.889       .  S
O214        C221   1.275       .  A
O215       Ni218   1.928       .  S
O215        C220   1.284       .  A
O216       Ni218   1.924       .  S
O216        C219   1.282       .  A
Ni217      Ni218   2.388       .  S
C221        C728   1.468       .  S
C222       C1216   1.498   1_455  S
C223        C224   1.426       .  A
C223        C228   1.424       .  A
C224        C225   1.412       .  A
C224        C229   1.443       .  S
C225        C226   1.402       .  A
C225       C1180   1.455       .  S
C226       C1156   1.474       .  S
C226        C227   1.403       .  A
C227        C228   1.409       .  A
C227        C230   1.455       .  S
C228        C231   1.443       .  S
C229        N236   1.157       .  T
C230        N235   1.157       .  T
C231        N233   1.157       .  T
C232       C1173   1.455       .  S
C232        N234   1.157       .  T
C237        C238   1.415       .  A
C237        C242   1.415       .  A
C238        C239   1.410       .  A
C238        C243   1.455       .  S
C239        C240   1.420       .  A
C239        C246   1.446       .  S
C240        C241   1.420       .  A
C241        C242   1.409       .  A
C241        C244   1.446       .  S
C242        C245   1.456       .  S
C243        N250   1.158       .  T
C244        N249   1.157       .  T
C245        N247   1.158       .  T
C246        N248   1.157       .  T
C251        C252   1.424       .  A
C251        C256   1.420       .  A
C252        C253   1.410       .  A
C252        C257   1.445       .  S
C253        C254   1.402       .  A
C253        C734   1.454   1_545  S
C254        C695   1.468   1_545  S
C254        C255   1.404       .  A
C255        C256   1.404       .  A
C255        C258   1.454       .  S
C256        C259   1.445       .  S
C257        N264   1.157       .  T
C258        N263   1.157       .  T
C259        N261   1.157       .  T
C260        C727   1.454       .  S
C260        N262   1.157       .  T
C265        C266   1.420       .  A
C265        C270   1.417       .  A
C266        C267   1.410       .  A
C266        C271   1.446       .  S
C267        C268   1.416       .  A
C267        C274   1.456       .  S
C268       C1170   1.498       .  S
C268        C269   1.419       .  A
C269        C270   1.410       .  A
C269       C1220   1.456       .  S
C270        C273   1.446       .  S
C271        N278   1.157       .  T
C272       C1217   1.456       .  S
C272        N277   1.158   1_655  T
C273        N275   1.156       .  T
C274        N276   1.158       .  T
C279        C280   1.421       .  A
C279        C284   1.416       .  A
C280        C281   1.412       .  A
C280        C285   1.445       .  S
C281        C756   1.414   1_545  A
C281        C288   1.455   1_545  S
C282        C283   1.414       .  A
C282        C755   1.414       .  A
C283        C758   1.409       .  A
C283        C286   1.453       .  S
C284        C757   1.409       .  A
C284        C287   1.446       .  S
C285        N292   1.157       .  T
C286        N291   1.156       .  T
C287        N289   1.156       .  T
C288        N290   1.158       .  T
C293        C294   1.401       .  A
C293        C298   1.402       .  A
C294        C295   1.408       .  A
C294        C299   1.455       .  S
C295        C296   1.424       .  A
C295        C302   1.444       .  S
C296        C297   1.422       .  A
C297        C298   1.404       .  A
C297        C300   1.445       .  S
C298        C301   1.454       .  S
C299        N306   1.157       .  T
C300        N305   1.157       .  T
C301        N303   1.157       .  T
C302        N304   1.157       .  T
C307        C308   1.406       .  A
C307        C312   1.407       .  A
C308        C309   1.413       .  A
C308        C313   1.452       .  S
C309        C310   1.422       .  A
C309        C316   1.448       .  S
C310        C311   1.420       .  A
C311        C312   1.408       .  A
C311        C314   1.445       .  S
C312        C315   1.454       .  S
C313        N320   1.157       .  T
C314        N319   1.157       .  T
C315        N317   1.157       .  T
C316        N318   1.156       .  T
C321        C322   1.418       .  A
C321        C326   1.419       .  A
C322        C323   1.408       .  A
C322        C327   1.445       .  S
C323        C324   1.410       .  A
C323        C330   1.455       .  S
C324        C325   1.409       .  A
C325        C326   1.414       .  A
C325        C328   1.451       .  S
C326        C329   1.445       .  S
C327        N334   1.157       .  T
C328        N333   1.157       .  T
C329        N331   1.157       .  T
C330        N332   1.157       .  T
C335        C336   1.409       .  A
C335        C340   1.405       .  A
C336        C337   1.419       .  A
C336        C341   1.451       .  S
C337        C338   1.423       .  A
C337        C344   1.444       .  S
C338        C339   1.425       .  A
C339        C340   1.416       .  A
C339        C342   1.442       .  S
C340        C343   1.452       .  S
C341        N348   1.157       .  T
C342        N347   1.157       .  T
C343        N819   1.157       .  T
C344        N346   1.156       .  T
N345        C817   1.157       .  T
C349        C350   1.420       .  A
C349        C828   1.427       .  A
C350        C351   1.401       .  A
C350        C355   1.449       .  S
C351        C352   1.414       .  A
C351        C358   1.450       .  S
C352        C827   1.411       .  A
C353        C354   1.417       .  A
C353        C826   1.411   1_545  A
C353        C356   1.443       .  S
C354        C823   1.427       .  A
C354        C357   1.450       .  S
C355        N362   1.158       .  T
C356        N361   1.157       .  T
C357        N359   1.157       .  T
C358        N360   1.158       .  T
C363        C364   1.415       .  A
C363       C1316   1.416       .  A
C364        C365   1.412       .  A
C364        C369   1.455       .  S
C365        C366   1.417       .  A
C365        C372   1.444       .  S
C366       C1315   1.419       .  A
C367        C368   1.416       .  A
C367       C1314   1.419       .  A
C367        C370   1.448       .  S
C368       C1311   1.416       .  A
C368        C371   1.451       .  S
C369        N376   1.157       .  T
C370        N375   1.157       .  T
C371        N373   1.157       .  T
C372        N374   1.156       .  T
C377        C378   1.408       .  A
C377        C382   1.415       .  A
C378        C379   1.409       .  A
C378        C383   1.452       .  S
C379        C380   1.424       .  A
C379        C386   1.453       .  S
C380        C381   1.413       .  A
C381        C382   1.410       .  A
C381       C1332   1.452       .  S
C382       C1333   1.448       .  S
C383        N390   1.158       .  T
C384       C1329   1.452       .  S
C384        N389   1.157       .  T
C385       C1330   1.448       .  S
C385        N387   1.157   1_655  T
C386        N388   1.158       .  T
C391        C392   1.410       .  A
C391        C396   1.407       .  A
C392        C393   1.407       .  A
C392        C397   1.455       .  S
C393        C394   1.417       .  A
C393        C400   1.444       .  S
C394        C395   1.422       .  A
C395        C396   1.415       .  A
C395        C398   1.444       .  S
C396        C399   1.453       .  S
C397        N404   1.157       .  T
C398        N403   1.157       .  T
C399        N401   1.157       .  T
C400        N402   1.157       .  T
C405        C406   1.418       .  A
C405        C410   1.419       .  A
C406        C407   1.416       .  A
C406        C411   1.447       .  S
C407        C408   1.411       .  A
C407        C414   1.451       .  S
C408        C519   1.486       .  S
C408        C409   1.409       .  A
C409        C410   1.410       .  A
C409        C886   1.453       .  S
C410        C413   1.445       .  S
C411        N418   1.156       .  T
C412        C883   1.453   1_545  S
C412        N417   1.157       .  T
C413        N415   1.157       .  T
C414        N416   1.157       .  T
C419       C1022   1.495   1_455  S
C419        C420   1.421       .  A
C419        C424   1.416       .  A
C420        C421   1.410       .  A
C420        C425   1.451       .  S
C421        C422   1.409       .  A
C421        C428   1.452       .  S
C422        C423   1.413       .  A
C423        C424   1.409       .  A
C423        C426   1.448       .  S
C424       C1375   1.452       .  S
C425        N432   1.157       .  T
C426        N431   1.157       .  T
C427       C1372   1.452       .  S
C427        N429   1.158       .  T
C428        N430   1.158       .  T
C433        C434   1.419       .  A
C433        C438   1.418       .  A
C434        C435   1.411       .  A
C434        C439   1.444       .  S
C435        C436   1.412       .  A
C435        C442   1.454       .  S
C436        C547   1.498       .  S
C436        C437   1.414       .  A
C437        C438   1.416       .  A
C437        C440   1.452       .  S
C438        C441   1.447       .  S
C439        N446   1.157       .  T
C440        N919   1.157       .  T
C441        N443   1.157       .  T
C442        N444   1.157       .  T
N445        C914   1.157       .  T
C447        C448   1.417       .  A
C447        C452   1.412       .  A
C448        C449   1.404       .  A
C448        C453   1.449       .  S
C449        C450   1.415       .  A
C449       C1404   1.450   1_455  S
C450       C1007   1.504   1_455  S
C450        C451   1.423       .  A
C451        C452   1.414       .  A
C451        C454   1.450       .  S
C452        C455   1.442       .  S
C453        N460   1.158       .  T
C454        N459   1.157       .  T
C455        N457   1.157       .  T
C456       C1397   1.450       .  S
C456        N458   1.157       .  T
C461        C462   1.420       .  A
C461        C466   1.422       .  A
C462        C463   1.411       .  A
C462        C467   1.442       .  S
C463        C464   1.410       .  A
C463        C470   1.455       .  S
C464        C465   1.409       .  A
C465        C466   1.417       .  A
C465        C468   1.452       .  S
C466        C469   1.444       .  S
C467        N474   1.157       .  T
C468        N473   1.157       .  T
C469        N471   1.157       .  T
C470        N472   1.157       .  T
O475       Ni481   1.919       .  S
O475        C496   1.268       .  A
O476       Ni499   1.913       .  S
O476        C485   1.267       .  A
O477       Ni481   1.908       .  S
O477       Ni499   1.914       .  S
O477       Ni493   1.922       .  S
O477        H500   0.967       .  S
C478        O495   1.279       .  A
C478        O487   1.275       .  A
C478        C532   1.477       .  S
O479       Ni498   1.921       .  S
O479        C485   1.267       .  A
O480       Ni498   1.908       .  S
O480        C482   1.267       .  A
Ni481       O484   1.919       .  S
Ni481       O486   1.910       .  S
C482        O492   1.269       .  A
C482        C517   1.466       .  S
O483       Ni499   1.924       .  S
O483        C489   1.276       .  A
O484        C489   1.274       .  A
C485        C593   1.467       .  S
O486        C488   1.268       .  A
O487       Ni498   1.925       .  S
C488        O494   1.268       .  A
C488        C559   1.461       .  S
C489        C573   1.462       .  S
H490        O491   0.965       .  S
O491       Ni499   1.920       .  S
O491       Ni493   1.922       .  S
O491       Ni498   1.909       .  S
O492       Ni493   1.929       .  S
Ni493       O497   1.919       .  S
Ni493       O495   1.938       .  S
O494       Ni499   1.921       .  S
C496        O497   1.270       .  A
C496        C545   1.471       .  S
C501        C935   1.522       .  S
C501        C502   1.424       .  A
C501        C506   1.417       .  A
C502        C907   1.517       .  S
C502        C503   1.443       .  A
C503        C879   1.515       .  S
C503        C504   1.455       .  A
C504        C921   1.562       .  S
C504        C505   1.447       .  A
C505        C896   1.496       .  S
C505        C506   1.431       .  A
C506        C868   1.517       .  S
O507       Ni515   1.930       .  S
O507        C517   1.284       .  A
O508       Ni515   1.930       .  S
O508        C518   1.283       .  A
O509       Ni515   1.907       .  S
O509        C519   1.279       .  A
O510       Ni515   1.894       .  S
O510        C520   1.277       .  A
O511       Ni516   1.932       .  S
O511        C520   1.285       .  A
O512       Ni516   1.934       .  S
O512        C519   1.284       .  A
O513       Ni516   1.900       .  S
O513        C518   1.278       .  A
O514       Ni516   1.910       .  S
O514        C517   1.277       .  A
Ni515      Ni516   2.389       .  S
C518        C607   1.465       .  S
C520        C865   1.483       .  S
O521       Ni529   1.918       .  S
O521        C531   1.280       .  A
O522       Ni529   1.926       .  S
O522        C532   1.283       .  A
O523       Ni529   1.905       .  S
O523        C533   1.279       .  A
O524       Ni529   1.902       .  S
O524        C534   1.279       .  A
O525       Ni530   1.933       .  S
O525        C534   1.285       .  A
O526       Ni530   1.939       .  S
O526        C533   1.286       .  A
O527       Ni530   1.933       .  S
O527        C532   1.282       .  A
O528       Ni530   1.920       .  S
O528        C531   1.281       .  A
Ni529      Ni530   2.384       .  S
C531        C610   1.464       .  S
C533       C1872   1.504       .  S
C534        C938   1.492       .  S
O535       Ni543   1.918       .  S
O535        C545   1.280       .  A
O536       Ni543   1.918       .  S
O536        C546   1.281       .  A
O537       Ni543   1.919       .  S
O537        C547   1.281       .  A
O538       Ni543   1.920       .  S
O538        C548   1.284       .  A
O539       Ni544   1.907       .  S
O539        C548   1.279       .  A
O540       Ni544   1.915       .  S
O540        C547   1.282       .  A
O541       Ni544   1.914       .  S
O541        C546   1.278       .  A
O542       Ni544   1.922       .  S
O542        C545   1.283       .  A
Ni543      Ni544   2.386       .  S
C546        C611   1.460       .  S
C548       C1841   1.495       .  S
O549       Ni557   1.923       .  S
O549        C559   1.282       .  A
O550      Ni1505   1.935   1_455  S
O550        C560   1.285       .  A
O551       Ni557   1.894       .  S
O551        C561   1.275       .  A
O552       Ni557   1.906       .  S
O552        C562   1.280       .  A
O553       Ni558   1.927       .  S
O553       C1510   1.284       .  A
O554       Ni558   1.933       .  S
O554       C1509   1.287   1_455  A
O555       Ni558   1.910       .  S
O555        C560   1.277       .  A
O556      Ni1506   1.912       .  S
O556        C559   1.278       .  A
Ni557      O1498   1.935       .  S
Ni557     Ni1506   2.386       .  S
Ni558      O1504   1.912   1_455  S
Ni558     Ni1505   2.386   1_455  S
C560        C630   1.468       .  S
C561       O1502   1.287       .  A
C561        C854   1.492       .  S
C562       O1501   1.284       .  A
C562        C837   1.502       .  S
O563       Ni571   1.925       .  S
O563        C573   1.281       .  A
O564        C574   1.284       .  A
O565       Ni571   1.918       .  S
O566       Ni571   1.906       .  S
O567       Ni572   1.937       .  S
O567        C576   1.286   1_565  A
O568       Ni572   1.932       .  S
O568        C575   1.284       .  A
O569       Ni572   1.926       .  S
O569        C574   1.280       .  A
O570        C573   1.279       .  A
C574        C626   1.474       .  S
C575        C809   1.497       .  S
C576        C823   1.509       .  S
C577        C826   1.553       .  S
C577       C1526   1.436   1_455  A
C578        C851   1.494       .  S
C578       C1525   1.436       .  A
C578        C579   1.430       .  A
C579        C795   1.514       .  S
C579        C580   1.423       .  A
C580        C812   1.529       .  S
C581        C840   1.516       .  S
C581       C1530   1.444       .  A
C582        C784   1.515       .  S
C582       C1529   1.444   1_455  A
O583       Ni591   1.913       .  S
O583        C593   1.281       .  A
O584       Ni591   1.917       .  S
O584        C594   1.279       .  A
O585       Ni591   1.925       .  S
O585        C595   1.283       .  A
O586       Ni591   1.925       .  S
O586        C596   1.282       .  A
O587       Ni592   1.906       .  S
O587        C596   1.279       .  A
O588       Ni592   1.902       .  S
O588        C595   1.279       .  A
O589       Ni592   1.917       .  S
O589        C594   1.283       .  A
O590       Ni592   1.921       .  S
O590        C593   1.281       .  A
Ni591      Ni592   2.391       .  S
C594        C644   1.467       .  S
C595        C798   1.488       .  S
C596        C781   1.478       .  S
O597       Ni603   1.912   1_556  S
O597        C618   1.267       .  A
O598       Ni621   1.919       .  S
O598        C607   1.267       .  A
O599       Ni603   1.899   1_556  S
O599      Ni1095   1.910   1_566  S
O599       Ni615   1.918       .  S
C600        O617   1.278       .  A
C600        O609   1.275       .  A
C600        C694   1.465       .  S
O601       Ni620   1.913   1_554  S
O601        C607   1.267       .  A
O602       Ni620   1.915       .  S
O602        C604   1.268       .  A
Ni603       O608   1.910       .  S
C604        O614   1.270       .  A
C604        C679   1.471       .  S
O605      Ni1569   1.923       .  S
O605        C611   1.278       .  A
O606        C611   1.276       .  A
O608        C610   1.267       .  A
C610        O616   1.268       .  A
H612        O613   0.966   1_554  S
O613      Ni1563   1.909   1_455  S
O614      Ni1089   1.930   1_455  S
Ni615      O1088   1.930   1_565  S
Ni615       O619   1.917       .  S
Ni615      O1565   1.927       .  S
Ni615      O1561   1.909       .  S
O616      Ni1095   1.923   1_565  S
O617      Ni1563   1.927   1_455  S
C618        O619   1.267       .  A
C618        C660   1.463       .  S
Ni621      O1553   1.923   1_455  S
Ni621      O1090   1.923   1_455  S
Ni621      O1073   1.910   1_454  S
O623       Ni629   1.917       .  S
O623        C644   1.266       .  A
O624       Ni647   1.915       .  S
O624        C633   1.268       .  A
O625       Ni629   1.907       .  S
O625       Ni647   1.918       .  S
O625       Ni641   1.919       .  S
O625        H648   0.966       .  S
C626        O643   1.278       .  A
C626        O635   1.277       .  A
O627       Ni646   1.920       .  S
O627        C633   1.268       .  A
O628       Ni646   1.915       .  S
O628        C630   1.268       .  A
Ni629       O632   1.921       .  S
Ni629       O634   1.907       .  S
C630        O640   1.269       .  A
O631       Ni647   1.934       .  S
O631        C637   1.278       .  A
O632        C637   1.275       .  A
C633        C693   1.467       .  S
O634        C636   1.265       .  A
O635       Ni646   1.931       .  S
C636        O642   1.267       .  A
C636        C659   1.461       .  S
C637        C680   1.471       .  S
H638        O639   0.966       .  S
O639       Ni647   1.920       .  S
O639       Ni641   1.913       .  S
O639       Ni646   1.907       .  S
O640       Ni641   1.926       .  S
Ni641       O645   1.917       .  S
Ni641       O643   1.930       .  S
O642       Ni647   1.922       .  S
C644        O645   1.268       .  A
O649       Ni657   1.905       .  S
O649        C659   1.276       .  A
O650       Ni657   1.902       .  S
O650        C660   1.279       .  A
O651       Ni657   1.915       .  S
O651        C661   1.281       .  A
O652       Ni657   1.913       .  S
O652        C662   1.281       .  A
O653       Ni658   1.890       .  S
O653        C662   1.275       .  A
O654       Ni658   1.901       .  S
O654        C661   1.279       .  A
O655       Ni658   1.926       .  S
O655        C660   1.282       .  A
O656       Ni658   1.930       .  S
O656        C659   1.284       .  A
Ni657      Ni658   2.391       .  S
C661        C756   1.496       .  S
C662        C767   1.463       .  S
C663        C714   1.516       .  S
C663        C664   1.425       .  A
C663        C668   1.425       .  A
C664        C770   1.511       .  S
C664        C665   1.430       .  A
C665        C739   1.514       .  S
C665        C666   1.435       .  A
C666        C697   1.519       .  S
C666        C667   1.435       .  A
C667        C753   1.513       .  S
C667        C668   1.430       .  A
C668        C725   1.511       .  S
O669       Ni677   1.919       .  S
O669        C679   1.280       .  A
O670       Ni677   1.921       .  S
O670        C680   1.282       .  A
O671       Ni677   1.902       .  S
O671        C681   1.279       .  A
O672       Ni677   1.905       .  S
O672        C682   1.279       .  A
O673       Ni678   1.914       .  S
O673        C682   1.280       .  A
O674       Ni678   1.908       .  S
O674        C681   1.280       .  A
O675       Ni678   1.929       .  S
O675        C680   1.281       .  A
O676       Ni678   1.930       .  S
O676        C679   1.283       .  A
Ni677      Ni678   2.384       .  S
C681        C711   1.494       .  S
C682       C1648   1.474   1_455  S
O683       Ni691   1.910       .  S
O683        C693   1.280       .  A
O684       Ni691   1.913       .  S
O684        C694   1.277       .  A
O685       Ni691   1.921       .  S
O685        C695   1.283       .  A
O686       Ni691   1.913       .  S
O686        C696   1.281       .  A
O687       Ni692   1.895       .  S
O687        C696   1.277       .  A
O688       Ni692   1.889       .  S
O688        C695   1.275       .  A
O689       Ni692   1.928       .  S
O689        C694   1.284       .  A
O690       Ni692   1.924       .  S
O690        C693   1.282       .  A
Ni691      Ni692   2.388       .  S
C696       C1690   1.498   1_455  S
C697        C698   1.426       .  A
C697        C702   1.424       .  A
C698        C699   1.412       .  A
C698        C703   1.443       .  S
C699        C700   1.402       .  A
C699       C1654   1.455       .  S
C700       C1630   1.474       .  S
C700        C701   1.403       .  A
C701        C702   1.409       .  A
C701        C704   1.455       .  S
C702        C705   1.443       .  S
C703        N710   1.157       .  T
C704        N709   1.157       .  T
C705        N707   1.157       .  T
C706       C1647   1.455       .  S
C706        N708   1.157       .  T
C711        C712   1.415       .  A
C711        C716   1.415       .  A
C712        C713   1.410       .  A
C712        C717   1.455       .  S
C713        C714   1.420       .  A
C713        C720   1.446       .  S
C714        C715   1.420       .  A
C715        C716   1.409       .  A
C715        C718   1.446       .  S
C716        C719   1.456       .  S
C717        N724   1.158       .  T
C718        N723   1.157       .  T
C719        N721   1.158       .  T
C720        N722   1.157       .  T
C725        C726   1.424       .  A
C725        C730   1.420       .  A
C726        C727   1.410       .  A
C726        C731   1.445       .  S
C727        C728   1.402       .  A
C728        C729   1.404       .  A
C729        C730   1.404       .  A
C729        C732   1.454       .  S
C730        C733   1.445       .  S
C731        N738   1.157       .  T
C732        N737   1.157       .  T
C733        N735   1.157       .  T
C734        N736   1.157       .  T
C739        C740   1.420       .  A
C739        C744   1.417       .  A
C740        C741   1.410       .  A
C740        C745   1.446       .  S
C741        C742   1.416       .  A
C741        C748   1.456       .  S
C742       C1644   1.498       .  S
C742        C743   1.419       .  A
C743        C744   1.410       .  A
C743       C1694   1.456       .  S
C744        C747   1.446       .  S
C745        N752   1.157       .  T
C746       C1691   1.456       .  S
C746        N751   1.158   1_655  T
C747        N749   1.156       .  T
C748        N750   1.158       .  T
C753        C754   1.421       .  A
C753        C758   1.416       .  A
C754        C755   1.412       .  A
C754        C759   1.445       .  S
C755        C762   1.455       .  S
C756        C757   1.414   1_565  A
C757        C760   1.453   1_545  S
C758        C761   1.446       .  S
C759        N766   1.157       .  T
C760        N765   1.156       .  T
C761        N763   1.156       .  T
C762        N764   1.158       .  T
C767        C768   1.401       .  A
C767        C772   1.402       .  A
C768        C769   1.408       .  A
C768        C773   1.455       .  S
C769        C770   1.424       .  A
C769        C776   1.444       .  S
C770        C771   1.422       .  A
C771        C772   1.404       .  A
C771        C774   1.445       .  S
C772        C775   1.454       .  S
C773        N780   1.157       .  T
C774        N779   1.157       .  T
C775        N777   1.157       .  T
C776        N778   1.157       .  T
C781        C782   1.406       .  A
C781        C786   1.407       .  A
C782        C783   1.413       .  A
C782        C787   1.452       .  S
C783        C784   1.422       .  A
C783        C790   1.448       .  S
C784        C785   1.420       .  A
C785        C786   1.408       .  A
C785        C788   1.445       .  S
C786        C789   1.454       .  S
C787        N794   1.157       .  T
C788        N793   1.157       .  T
C789        N791   1.157       .  T
C790        N792   1.156       .  T
C795        C796   1.418       .  A
C795        C800   1.419       .  A
C796        C797   1.408       .  A
C796        C801   1.445       .  S
C797        C798   1.410       .  A
C797        C804   1.455       .  S
C798        C799   1.409       .  A
C799        C800   1.414       .  A
C799        C802   1.451       .  S
C800        C803   1.445       .  S
C801        N808   1.157       .  T
C802        N807   1.157       .  T
C803        N805   1.157       .  T
C804        N806   1.157       .  T
C809        C810   1.409       .  A
C809        C814   1.405       .  A
C810        C811   1.419       .  A
C810        C815   1.451   1_565  S
C811        C812   1.423       .  A
C811        C818   1.444   1_565  S
C812        C813   1.425       .  A
C813        C814   1.416       .  A
C813        C816   1.442       .  S
C814        C817   1.452       .  S
C815        N822   1.157       .  T
C816        N821   1.157       .  T
C818        N820   1.156       .  T
C823        C824   1.420   1_545  A
C824        C825   1.401       .  A
C824        C829   1.449       .  S
C825        C826   1.414       .  A
C825        C832   1.450       .  S
C827        C828   1.417       .  A
C827        C830   1.443       .  S
C828        C831   1.450       .  S
C829        N836   1.158       .  T
C830        N835   1.157       .  T
C831        N833   1.157       .  T
C832        N834   1.158       .  T
C837        C838   1.415       .  A
C837       C1790   1.416       .  A
C838        C839   1.412       .  A
C838        C843   1.455       .  S
C839        C840   1.417       .  A
C839        C846   1.444       .  S
C840       C1789   1.419       .  A
C841       C1788   1.419       .  A
C841        C842   1.416       .  A
C841        C844   1.448       .  S
C842       C1785   1.416       .  A
C842        C845   1.451       .  S
C843        N850   1.157       .  T
C844        N849   1.157       .  T
C845        N847   1.157       .  T
C846        N848   1.156       .  T
C851        C852   1.408       .  A
C851        C856   1.415       .  A
C852        C853   1.409       .  A
C852        C857   1.452       .  S
C853        C854   1.424       .  A
C853        C860   1.453       .  S
C854        C855   1.413       .  A
C855        C856   1.410       .  A
C855       C1806   1.452       .  S
C856       C1807   1.448       .  S
C857        N864   1.158       .  T
C858       C1803   1.452       .  S
C858        N863   1.157       .  T
C859       C1804   1.448       .  S
C859        N861   1.157   1_655  T
C860        N862   1.158       .  T
C865        C866   1.410       .  A
C865        C870   1.407       .  A
C866        C867   1.407       .  A
C866        C871   1.455       .  S
C867        C868   1.417       .  A
C867        C874   1.444       .  S
C868        C869   1.422       .  A
C869        C870   1.415       .  A
C869        C872   1.444       .  S
C870        C873   1.453       .  S
C871        N878   1.157       .  T
C872        N877   1.157       .  T
C873        N875   1.157       .  T
C874        N876   1.157       .  T
C879        C880   1.418       .  A
C879        C884   1.419       .  A
C880        C881   1.416       .  A
C880        C885   1.447       .  S
C881        C882   1.411       .  A
C881        C888   1.451       .  S
C882        C883   1.409       .  A
C883        C884   1.410       .  A
C884        C887   1.445       .  S
C885        N892   1.156       .  T
C886        N891   1.157       .  T
C887        N889   1.157       .  T
C888        N890   1.157       .  T
C893       C1496   1.495   1_455  S
C893        C894   1.421       .  A
C893        C898   1.416       .  A
C894        C895   1.410       .  A
C894        C899   1.451       .  S
C895        C896   1.409       .  A
C895        C902   1.452       .  S
C896        C897   1.413       .  A
C897        C898   1.409       .  A
C897        C900   1.448       .  S
C898       C1849   1.452       .  S
C899        N906   1.157       .  T
C900        N905   1.157       .  T
C901       C1846   1.452       .  S
C901        N903   1.158       .  T
C902        N904   1.158       .  T
C907        C908   1.419       .  A
C907        C912   1.418       .  A
C908        C909   1.411       .  A
C908        C913   1.444       .  S
C909        C910   1.412       .  A
C909        C916   1.454       .  S
C910        C911   1.414       .  A
C911        C912   1.416       .  A
C911        C914   1.452       .  S
C912        C915   1.447       .  S
C913        N920   1.157       .  T
C915        N917   1.157       .  T
C916        N918   1.157   1_565  T
C921        C922   1.417       .  A
C921        C926   1.412       .  A
C922        C923   1.404       .  A
C922        C927   1.449       .  S
C923        C924   1.415       .  A
C923       C1878   1.450   1_455  S
C924       C1481   1.504   1_455  S
C924        C925   1.423       .  A
C925        C926   1.414       .  A
C925        C928   1.450       .  S
C926        C929   1.442       .  S
C927        N934   1.158       .  T
C928        N933   1.157       .  T
C929        N931   1.157       .  T
C930       C1871   1.450       .  S
C930        N932   1.157       .  T
C935        C936   1.420       .  A
C935        C940   1.422       .  A
C936        C937   1.411       .  A
C936        C941   1.442       .  S
C937        C938   1.410       .  A
C937        C944   1.455       .  S
C938        C939   1.409       .  A
C939        C940   1.417       .  A
C939        C942   1.452       .  S
C940        C943   1.444       .  S
C941        N948   1.157       .  T
C942        N947   1.157       .  T
C943        N945   1.157       .  T
C944        N946   1.157       .  T
O949       Ni955   1.919       .  S
O949        C970   1.268       .  A
O950       Ni973   1.913       .  S
O950        C959   1.267       .  A
O951       Ni955   1.908       .  S
O951       Ni973   1.914       .  S
O951       Ni967   1.922       .  S
O951        H974   0.967       .  S
C952        O969   1.279       .  A
C952        O961   1.275       .  A
C952       C1006   1.477       .  S
O953       Ni972   1.921       .  S
O953        C959   1.267       .  A
O954       Ni972   1.908       .  S
O954        C956   1.267       .  A
Ni955       O958   1.919       .  S
Ni955       O960   1.910       .  S
C956        O966   1.269       .  A
C956        C991   1.466       .  S
O957       Ni973   1.924       .  S
O957        C963   1.276       .  A
O958        C963   1.274       .  A
C959       C1067   1.467       .  S
O960        C962   1.268       .  A
O961       Ni972   1.925       .  S
C962        O968   1.268       .  A
C962       C1033   1.461       .  S
C963       C1047   1.462       .  S
H964        O965   0.965       .  S
O965       Ni973   1.920       .  S
O965       Ni967   1.922       .  S
O965       Ni972   1.909       .  S
O966       Ni967   1.929       .  S
Ni967       O971   1.919       .  S
Ni967       O969   1.938       .  S
O968       Ni973   1.921       .  S
C970        O971   1.270       .  A
C970       C1019   1.471       .  S
C975       C1409   1.522       .  S
C975        C976   1.424       .  A
C975        C980   1.417       .  A
C976       C1381   1.517       .  S
C976        C977   1.443       .  A
C977       C1353   1.515       .  S
C977        C978   1.455       .  A
C978       C1395   1.562       .  S
C978        C979   1.447       .  A
C979       C1370   1.496       .  S
C979        C980   1.431       .  A
C980       C1342   1.517       .  S
O981       Ni989   1.930       .  S
O981        C991   1.284       .  A
O982       Ni989   1.930       .  S
O982        C992   1.283       .  A
O983       Ni989   1.907       .  S
O983        C993   1.279       .  A
O984       Ni989   1.894       .  S
O984        C994   1.277       .  A
O985       Ni990   1.932       .  S
O985        C994   1.285       .  A
O986       Ni990   1.934       .  S
O986        C993   1.284       .  A
O987       Ni990   1.900       .  S
O987        C992   1.278       .  A
O988       Ni990   1.910       .  S
O988        C991   1.277       .  A
Ni989      Ni990   2.389       .  S
C992       C1081   1.465       .  S
C993       C1830   1.486   1_545  S
C994       C1339   1.483       .  S
O995      Ni1003   1.918       .  S
O995       C1005   1.280       .  A
O996      Ni1003   1.926       .  S
O996       C1006   1.283       .  A
O997      Ni1003   1.905       .  S
O997       C1007   1.279       .  A
O998      Ni1003   1.902       .  S
O998       C1008   1.279       .  A
O999      Ni1004   1.933       .  S
O999       C1008   1.285       .  A
O1000     Ni1004   1.939       .  S
O1000      C1007   1.286       .  A
O1001     Ni1004   1.933       .  S
O1001      C1006   1.282       .  A
O1002     Ni1004   1.920       .  S
O1002      C1005   1.281       .  A
Ni1003    Ni1004   2.384       .  S
C1005      C1084   1.464       .  S
C1008      C1412   1.492       .  S
O1009     Ni1017   1.918       .  S
O1009      C1019   1.280       .  A
O1010     Ni1017   1.918       .  S
O1010      C1020   1.281       .  A
O1011     Ni1017   1.919       .  S
O1011      C1021   1.281       .  A
O1012     Ni1017   1.920       .  S
O1012      C1022   1.284       .  A
O1013     Ni1018   1.907       .  S
O1013      C1022   1.279       .  A
O1014     Ni1018   1.915       .  S
O1014      C1021   1.282       .  A
O1015     Ni1018   1.914       .  S
O1015      C1020   1.278       .  A
O1016     Ni1018   1.922       .  S
O1016      C1019   1.283       .  A
Ni1017    Ni1018   2.386       .  S
C1020      C1085   1.460       .  S
C1021      C1858   1.498   1_545  S
O1023     Ni1031   1.923       .  S
O1023      C1033   1.282       .  A
O1024      C1034   1.285       .  A
O1025     Ni1031   1.894       .  S
O1025      C1035   1.275       .  A
O1026     Ni1031   1.906       .  S
O1026      C1036   1.280   1_655  A
O1027     Ni1032   1.927       .  S
O1028     Ni1032   1.933       .  S
O1029     Ni1032   1.910       .  S
O1029      C1034   1.277       .  A
O1030      C1033   1.278       .  A
C1034      C1104   1.468       .  S
C1035      C1328   1.492       .  S
C1036      C1311   1.502       .  S
O1037     Ni1045   1.925       .  S
O1037      C1047   1.281       .  A
O1038     Ni1519   1.929       .  S
O1038      C1048   1.284       .  A
O1039     Ni1045   1.918       .  S
O1039      C1523   1.281   1_545  A
O1040     Ni1045   1.906       .  S
O1040      C1524   1.278       .  A
O1041     Ni1046   1.937       .  S
O1041      C1050   1.286       .  A
O1042     Ni1046   1.932       .  S
O1042      C1049   1.284       .  A
O1043     Ni1046   1.926       .  S
O1043      C1048   1.280       .  A
O1044     Ni1520   1.912   1_545  S
O1044      C1047   1.279       .  A
Ni1045     O1512   1.929   1_545  S
Ni1045    Ni1520   2.385   1_545  S
Ni1046     O1518   1.912       .  S
Ni1046    Ni1519   2.385       .  S
C1048      C1100   1.474       .  S
C1049      O1513   1.281       .  A
C1049      C1283   1.497       .  S
C1050      O1514   1.278       .  A
C1050      C1297   1.509       .  S
C1051      C1300   1.553       .  S
C1051      C1530   1.445       .  A
C1052      C1325   1.494       .  S
C1052      C1053   1.430       .  A
C1053      C1269   1.514       .  S
C1053      C1054   1.423       .  A
C1054      C1286   1.529       .  S
C1054      C1529   1.431       .  A
C1055      C1314   1.516   1_655  S
C1055      C1528   1.431   1_545  A
C1056      C1258   1.515       .  S
C1056      C1525   1.445   1_545  A
O1057     Ni1065   1.913       .  S
O1057      C1067   1.281       .  A
O1058     Ni1065   1.917       .  S
O1058      C1068   1.279       .  A
O1059     Ni1065   1.925       .  S
O1059      C1069   1.283       .  A
O1060     Ni1065   1.925       .  S
O1060      C1070   1.282       .  A
O1061     Ni1066   1.906       .  S
O1061      C1070   1.279       .  A
O1062     Ni1066   1.902       .  S
O1062      C1069   1.279       .  A
O1063     Ni1066   1.917       .  S
O1063      C1068   1.283       .  A
O1064     Ni1066   1.921       .  S
O1064      C1067   1.281       .  A
Ni1065    Ni1066   2.391       .  S
C1068      C1118   1.467       .  S
C1069      C1272   1.488       .  S
C1070      C1255   1.478       .  S
O1071     Ni1077   1.912   1_556  S
O1071      C1092   1.267       .  A
O1072     Ni1095   1.919       .  S
O1072      C1081   1.267       .  A
O1073     Ni1077   1.899   1_556  S
O1073     Ni1089   1.918       .  S
O1073      H1570   0.967       .  S
C1074      O1091   1.278       .  A
C1074      O1083   1.275       .  A
C1074      C1168   1.465       .  S
O1075     Ni1094   1.913   1_554  S
O1075      C1081   1.267       .  A
O1076     Ni1094   1.915       .  S
O1076      C1078   1.268       .  A
Ni1077     O1554   1.919       .  S
Ni1077     O1082   1.910       .  S
C1078      O1088   1.270       .  A
C1078      C1153   1.471       .  S
O1079      C1085   1.278       .  A
O1080     Ni1551   1.919   1_545  S
O1080      C1085   1.276       .  A
O1082      C1084   1.267       .  A
O1083     Ni1568   1.921       .  S
C1084      O1090   1.268       .  A
H1086      O1087   0.966   1_554  S
O1087     Ni1569   1.916   1_556  S
O1087     Ni1568   1.897       .  S
Ni1089     O1093   1.917       .  S
C1092      O1093   1.267       .  A
C1092      C1134   1.463       .  S
Ni1094     O1557   1.921   1_545  S
Ni1094     O1561   1.897   1_545  S
Ni1095     O1561   1.916   1_544  S
H1096      O1547   0.967   1_545  S
O1097     Ni1103   1.917       .  S
O1097      C1118   1.266       .  A
O1098     Ni1121   1.915       .  S
O1098      C1107   1.268       .  A
O1099     Ni1103   1.907       .  S
O1099     Ni1121   1.918       .  S
O1099     Ni1115   1.919       .  S
O1099      H1122   0.966       .  S
C1100      O1117   1.278       .  A
C1100      O1109   1.277       .  A
O1101     Ni1120   1.920       .  S
O1101      C1107   1.268       .  A
O1102     Ni1120   1.915       .  S
O1102      C1104   1.268       .  A
Ni1103     O1106   1.921       .  S
Ni1103     O1108   1.907       .  S
C1104      O1114   1.269       .  A
O1105     Ni1121   1.934       .  S
O1105      C1111   1.278       .  A
O1106      C1111   1.275       .  A
C1107      C1167   1.467       .  S
O1108      C1110   1.265       .  A
O1109     Ni1120   1.931       .  S
C1110      O1116   1.267       .  A
C1110      C1133   1.461       .  S
C1111      C1154   1.471       .  S
H1112      O1113   0.966       .  S
O1113     Ni1121   1.920       .  S
O1113     Ni1115   1.913       .  S
O1113     Ni1120   1.907       .  S
O1114     Ni1115   1.926       .  S
Ni1115     O1119   1.917       .  S
Ni1115     O1117   1.930       .  S
O1116     Ni1121   1.922       .  S
C1118      O1119   1.268       .  A
O1123     Ni1131   1.905       .  S
O1123      C1133   1.276       .  A
O1124     Ni1131   1.902       .  S
O1124      C1134   1.279       .  A
O1125     Ni1131   1.915       .  S
O1125      C1135   1.281       .  A
O1126     Ni1131   1.913       .  S
O1126      C1136   1.281       .  A
O1127     Ni1132   1.890       .  S
O1127      C1136   1.275       .  A
O1128     Ni1132   1.901       .  S
O1128      C1135   1.279       .  A
O1129     Ni1132   1.926       .  S
O1129      C1134   1.282       .  A
O1130     Ni1132   1.930       .  S
O1130      C1133   1.284       .  A
Ni1131    Ni1132   2.391       .  S
C1135      C1230   1.496       .  S
C1136      C1241   1.463       .  S
C1137      C1188   1.516       .  S
C1137      C1138   1.425       .  A
C1137      C1142   1.425       .  A
C1138      C1244   1.511       .  S
C1138      C1139   1.430       .  A
C1139      C1213   1.514       .  S
C1139      C1140   1.435       .  A
C1140      C1171   1.519       .  S
C1140      C1141   1.435       .  A
C1141      C1227   1.513       .  S
C1141      C1142   1.430       .  A
C1142      C1199   1.511       .  S
O1143     Ni1151   1.919       .  S
O1143      C1153   1.280       .  A
O1144     Ni1151   1.921       .  S
O1144      C1154   1.282       .  A
O1145     Ni1151   1.902       .  S
O1145      C1155   1.279       .  A
O1146     Ni1151   1.905       .  S
O1146      C1156   1.279       .  A
O1147     Ni1152   1.914       .  S
O1147      C1156   1.280       .  A
O1148     Ni1152   1.908       .  S
O1148      C1155   1.280       .  A
O1149     Ni1152   1.929       .  S
O1149      C1154   1.281       .  A
O1150     Ni1152   1.930       .  S
O1150      C1153   1.283       .  A
Ni1151    Ni1152   2.384       .  S
C1155      C1185   1.494       .  S
O1157     Ni1165   1.910       .  S
O1157      C1167   1.280       .  A
O1158     Ni1165   1.913       .  S
O1158      C1168   1.277       .  A
O1159     Ni1165   1.921       .  S
O1159      C1169   1.283       .  A
O1160     Ni1165   1.913       .  S
O1160      C1170   1.281       .  A
O1161     Ni1166   1.895       .  S
O1161      C1170   1.277       .  A
O1162     Ni1166   1.889       .  S
O1162      C1169   1.275       .  A
O1163     Ni1166   1.928       .  S
O1163      C1168   1.284       .  A
O1164     Ni1166   1.924       .  S
O1164      C1167   1.282       .  A
Ni1165    Ni1166   2.388       .  S
C1169      C1676   1.468       .  S
C1171      C1172   1.426       .  A
C1171      C1176   1.424       .  A
C1172      C1173   1.412       .  A
C1172      C1177   1.443       .  S
C1173      C1174   1.402       .  A
C1174      C1175   1.403       .  A
C1175      C1176   1.409       .  A
C1175      C1178   1.455       .  S
C1176      C1179   1.443       .  S
C1177      N1184   1.157       .  T
C1178      N1183   1.157   1_655  T
C1179      N1181   1.157       .  T
C1180      N1182   1.157       .  T
C1185      C1186   1.415       .  A
C1185      C1190   1.415       .  A
C1186      C1187   1.410       .  A
C1186      C1191   1.455       .  S
C1187      C1188   1.420       .  A
C1187      C1194   1.446       .  S
C1188      C1189   1.420       .  A
C1189      C1190   1.409       .  A
C1189      C1192   1.446       .  S
C1190      C1193   1.456       .  S
C1191      N1198   1.158       .  T
C1192      N1197   1.157       .  T
C1193      N1195   1.158       .  T
C1194      N1196   1.157       .  T
C1199      C1200   1.424       .  A
C1199      C1204   1.420       .  A
C1200      C1201   1.410       .  A
C1200      C1205   1.445       .  S
C1201      C1202   1.402       .  A
C1201      C1682   1.454   1_545  S
C1202      C1643   1.468   1_545  S
C1202      C1203   1.404       .  A
C1203      C1204   1.404       .  A
C1203      C1206   1.454       .  S
C1204      C1207   1.445       .  S
C1205      N1212   1.157       .  T
C1206      N1211   1.157       .  T
C1207      N1209   1.157       .  T
C1208      C1675   1.454       .  S
C1208      N1210   1.157       .  T
C1213      C1214   1.420       .  A
C1213      C1218   1.417       .  A
C1214      C1215   1.410       .  A
C1214      C1219   1.446       .  S
C1215      C1216   1.416       .  A
C1215      C1222   1.456       .  S
C1216      C1217   1.419       .  A
C1217      C1218   1.410       .  A
C1218      C1221   1.446       .  S
C1219      N1226   1.157       .  T
C1220      N1225   1.158       .  T
C1221      N1223   1.156       .  T
C1222      N1224   1.158       .  T
C1227      C1228   1.421       .  A
C1227      C1232   1.416       .  A
C1228      C1229   1.412       .  A
C1228      C1233   1.445       .  S
C1229      C1704   1.414   1_545  A
C1229      C1236   1.455   1_545  S
C1230      C1703   1.414       .  A
C1230      C1231   1.414       .  A
C1231      C1706   1.409       .  A
C1231      C1234   1.453       .  S
C1232      C1705   1.409       .  A
C1232      C1235   1.446       .  S
C1233      N1240   1.157       .  T
C1234      N1239   1.156       .  T
C1235      N1237   1.156       .  T
C1236      N1238   1.158       .  T
C1241      C1242   1.401       .  A
C1241      C1246   1.402       .  A
C1242      C1243   1.408       .  A
C1242      C1247   1.455       .  S
C1243      C1244   1.424       .  A
C1243      C1250   1.444       .  S
C1244      C1245   1.422       .  A
C1245      C1246   1.404       .  A
C1245      C1248   1.445       .  S
C1246      C1249   1.454       .  S
C1247      N1254   1.157       .  T
C1248      N1253   1.157       .  T
C1249      N1251   1.157       .  T
C1250      N1252   1.157       .  T
C1255      C1256   1.406       .  A
C1255      C1260   1.407       .  A
C1256      C1257   1.413       .  A
C1256      C1261   1.452       .  S
C1257      C1258   1.422       .  A
C1257      C1264   1.448       .  S
C1258      C1259   1.420       .  A
C1259      C1260   1.408       .  A
C1259      C1262   1.445       .  S
C1260      C1263   1.454       .  S
C1261      N1268   1.157       .  T
C1262      N1267   1.157       .  T
C1263      N1265   1.157       .  T
C1264      N1266   1.156       .  T
C1269      C1270   1.418       .  A
C1269      C1274   1.419       .  A
C1270      C1271   1.408       .  A
C1270      C1275   1.445       .  S
C1271      C1272   1.410       .  A
C1271      C1278   1.455       .  S
C1272      C1273   1.409       .  A
C1273      C1274   1.414       .  A
C1273      C1276   1.451       .  S
C1274      C1277   1.445       .  S
C1275      N1282   1.157       .  T
C1276      N1281   1.157       .  T
C1277      N1279   1.157       .  T
C1278      N1280   1.157       .  T
C1283      C1284   1.409       .  A
C1283      C1288   1.405       .  A
C1284      C1285   1.419       .  A
C1284      C1289   1.451       .  S
C1285      C1286   1.423       .  A
C1285      C1292   1.444       .  S
C1286      C1287   1.425       .  A
C1287      C1288   1.416       .  A
C1287      C1290   1.442       .  S
C1288      C1291   1.452       .  S
C1289      N1296   1.157       .  T
C1290      N1295   1.157       .  T
C1291      N1767   1.157       .  T
C1292      N1294   1.156       .  T
N1293      C1765   1.157       .  T
C1297      C1298   1.420       .  A
C1297      C1776   1.427       .  A
C1298      C1299   1.401       .  A
C1298      C1303   1.449       .  S
C1299      C1300   1.414       .  A
C1299      C1306   1.450       .  S
C1300      C1775   1.411       .  A
C1301      C1774   1.411   1_545  A
C1301      C1302   1.417       .  A
C1301      C1304   1.443       .  S
C1302      C1771   1.427       .  A
C1302      C1305   1.450       .  S
C1303      N1310   1.158       .  T
C1304      N1309   1.157       .  T
C1305      N1307   1.157       .  T
C1306      N1308   1.158       .  T
C1311      C1312   1.415       .  A
C1312      C1313   1.412   1_455  A
C1312      C1317   1.455       .  S
C1313      C1314   1.417   1_655  A
C1313      C1320   1.444       .  S
C1315      C1316   1.416       .  A
C1315      C1318   1.448       .  S
C1316      C1319   1.451       .  S
C1317      N1324   1.157       .  T
C1318      N1323   1.157       .  T
C1319      N1321   1.157       .  T
C1320      N1322   1.156       .  T
C1325      C1326   1.408       .  A
C1325      C1330   1.415       .  A
C1326      C1327   1.409       .  A
C1326      C1331   1.452   1_655  S
C1327      C1328   1.424       .  A
C1327      C1334   1.453       .  S
C1328      C1329   1.413       .  A
C1329      C1330   1.410       .  A
C1331      N1338   1.158       .  T
C1332      N1337   1.157       .  T
C1333      N1335   1.157       .  T
C1334      N1336   1.158       .  T
C1339      C1340   1.410       .  A
C1339      C1344   1.407       .  A
C1340      C1341   1.407       .  A
C1340      C1345   1.455       .  S
C1341      C1342   1.417       .  A
C1341      C1348   1.444       .  S
C1342      C1343   1.422       .  A
C1343      C1344   1.415       .  A
C1343      C1346   1.444       .  S
C1344      C1347   1.453       .  S
C1345      N1352   1.157       .  T
C1346      N1351   1.157       .  T
C1347      N1349   1.157       .  T
C1348      N1350   1.157       .  T
C1353      C1354   1.418       .  A
C1353      C1358   1.419       .  A
C1354      C1355   1.416       .  A
C1354      C1359   1.447       .  S
C1355      C1356   1.411       .  A
C1355      C1362   1.451       .  S
C1356      C1467   1.486       .  S
C1356      C1357   1.409       .  A
C1357      C1358   1.410       .  A
C1357      C1834   1.453       .  S
C1358      C1361   1.445       .  S
C1359      N1366   1.156       .  T
C1360      C1831   1.453   1_545  S
C1360      N1365   1.157       .  T
C1361      N1363   1.157       .  T
C1362      N1364   1.157       .  T
C1367      C1368   1.421       .  A
C1367      C1372   1.416       .  A
C1368      C1369   1.410       .  A
C1368      C1373   1.451       .  S
C1369      C1370   1.409       .  A
C1369      C1376   1.452       .  S
C1370      C1371   1.413       .  A
C1371      C1372   1.409       .  A
C1371      C1374   1.448       .  S
C1373      N1380   1.157       .  T
C1374      N1379   1.157       .  T
C1375      N1377   1.158       .  T
C1376      N1378   1.158       .  T
C1381      C1382   1.419       .  A
C1381      C1386   1.418       .  A
C1382      C1383   1.411       .  A
C1382      C1387   1.444       .  S
C1383      C1384   1.412       .  A
C1383      C1390   1.454       .  S
C1384      C1495   1.498       .  S
C1384      C1385   1.414       .  A
C1385      C1386   1.416       .  A
C1385      C1388   1.452       .  S
C1386      C1389   1.447       .  S
C1387      N1394   1.157       .  T
C1388      N1867   1.157       .  T
C1389      N1391   1.157       .  T
C1390      N1392   1.157       .  T
N1393      C1862   1.157       .  T
C1395      C1396   1.417       .  A
C1395      C1400   1.412       .  A
C1396      C1397   1.404       .  A
C1396      C1401   1.449       .  S
C1397      C1398   1.415       .  A
C1398      C1399   1.423       .  A
C1399      C1400   1.414       .  A
C1399      C1402   1.450       .  S
C1400      C1403   1.442       .  S
C1401      N1408   1.158       .  T
C1402      N1407   1.157       .  T
C1403      N1405   1.157       .  T
C1404      N1406   1.157       .  T
C1409      C1410   1.420       .  A
C1409      C1414   1.422       .  A
C1410      C1411   1.411       .  A
C1410      C1415   1.442       .  S
C1411      C1412   1.410       .  A
C1411      C1418   1.455       .  S
C1412      C1413   1.409       .  A
C1413      C1414   1.417       .  A
C1413      C1416   1.452       .  S
C1414      C1417   1.444       .  S
C1415      N1422   1.157       .  T
C1416      N1421   1.157       .  T
C1417      N1419   1.157       .  T
C1418      N1420   1.157       .  T
O1423     Ni1429   1.919       .  S
O1423      C1444   1.268       .  A
O1424     Ni1447   1.913       .  S
O1424      C1433   1.267       .  A
O1425     Ni1429   1.908       .  S
O1425     Ni1447   1.914       .  S
O1425     Ni1441   1.922       .  S
O1425      H1448   0.967       .  S
C1426      O1443   1.279       .  A
C1426      O1435   1.275       .  A
C1426      C1480   1.477       .  S
O1427     Ni1446   1.921       .  S
O1427      C1433   1.267       .  A
O1428     Ni1446   1.908       .  S
O1428      C1430   1.267       .  A
Ni1429     O1432   1.919       .  S
Ni1429     O1434   1.910       .  S
C1430      O1440   1.269       .  A
C1430      C1465   1.466       .  S
O1431     Ni1447   1.924       .  S
O1431      C1437   1.276       .  A
O1432      C1437   1.274       .  A
C1433      C1541   1.467       .  S
O1434      C1436   1.268       .  A
O1435     Ni1446   1.925       .  S
C1436      O1442   1.268       .  A
C1436      C1507   1.461       .  S
C1437      C1521   1.462       .  S
H1438      O1439   0.965       .  S
O1439     Ni1447   1.920       .  S
O1439     Ni1441   1.922       .  S
O1439     Ni1446   1.909       .  S
O1440     Ni1441   1.929       .  S
Ni1441     O1445   1.919       .  S
Ni1441     O1443   1.938       .  S
O1442     Ni1447   1.921       .  S
C1444      O1445   1.270       .  A
C1444      C1493   1.471       .  S
C1449      C1883   1.522       .  S
C1449      C1450   1.424       .  A
C1449      C1454   1.417       .  A
C1450      C1855   1.517       .  S
C1450      C1451   1.443       .  A
C1451      C1827   1.515       .  S
C1451      C1452   1.455       .  A
C1452      C1869   1.562       .  S
C1452      C1453   1.447       .  A
C1453      C1844   1.496       .  S
C1453      C1454   1.431       .  A
C1454      C1816   1.517       .  S
O1455     Ni1463   1.930       .  S
O1455      C1465   1.284       .  A
O1456     Ni1463   1.930       .  S
O1456      C1466   1.283       .  A
O1457     Ni1463   1.907       .  S
O1457      C1467   1.279       .  A
O1458     Ni1463   1.894       .  S
O1458      C1468   1.277       .  A
O1459     Ni1464   1.932       .  S
O1459      C1468   1.285       .  A
O1460     Ni1464   1.934       .  S
O1460      C1467   1.284       .  A
O1461     Ni1464   1.900       .  S
O1461      C1466   1.278       .  A
O1462     Ni1464   1.910       .  S
O1462      C1465   1.277       .  A
Ni1463    Ni1464   2.389       .  S
C1466      C1555   1.465       .  S
C1468      C1813   1.483       .  S
O1469     Ni1477   1.918       .  S
O1469      C1479   1.280       .  A
O1470     Ni1477   1.926       .  S
O1470      C1480   1.283       .  A
O1471     Ni1477   1.905       .  S
O1471      C1481   1.279       .  A
O1472     Ni1477   1.902       .  S
O1472      C1482   1.279       .  A
O1473     Ni1478   1.933       .  S
O1473      C1482   1.285       .  A
O1474     Ni1478   1.939       .  S
O1474      C1481   1.286       .  A
O1475     Ni1478   1.933       .  S
O1475      C1480   1.282       .  A
O1476     Ni1478   1.920       .  S
O1476      C1479   1.281       .  A
Ni1477    Ni1478   2.384       .  S
C1479      C1558   1.464       .  S
C1482      C1886   1.492       .  S
O1483     Ni1491   1.918       .  S
O1483      C1493   1.280       .  A
O1484     Ni1491   1.918       .  S
O1484      C1494   1.281       .  A
O1485     Ni1491   1.919       .  S
O1485      C1495   1.281       .  A
O1486     Ni1491   1.920       .  S
O1486      C1496   1.284       .  A
O1487     Ni1492   1.907       .  S
O1487      C1496   1.279       .  A
O1488     Ni1492   1.915       .  S
O1488      C1495   1.282       .  A
O1489     Ni1492   1.914       .  S
O1489      C1494   1.278       .  A
O1490     Ni1492   1.922       .  S
O1490      C1493   1.283       .  A
Ni1491    Ni1492   2.386       .  S
C1494      C1559   1.460       .  S
O1497     Ni1505   1.923       .  S
O1497      C1507   1.282       .  A
O1498      C1508   1.285       .  A
O1499     Ni1505   1.894       .  S
O1499      C1509   1.275       .  A
O1500     Ni1505   1.906       .  S
O1500      C1510   1.280   1_655  A
O1501     Ni1506   1.927       .  S
O1502     Ni1506   1.933       .  S
O1503     Ni1506   1.910       .  S
O1503      C1508   1.277       .  A
O1504      C1507   1.278       .  A
C1508      C1578   1.468       .  S
C1509      C1802   1.492       .  S
C1510      C1785   1.502       .  S
O1511     Ni1519   1.925       .  S
O1511      C1521   1.281       .  A
O1512      C1522   1.284       .  A
O1513     Ni1519   1.918       .  S
O1514     Ni1519   1.906       .  S
O1515     Ni1520   1.937       .  S
O1515      C1524   1.286   1_565  A
O1516     Ni1520   1.932       .  S
O1516      C1523   1.284       .  A
O1517     Ni1520   1.926       .  S
O1517      C1522   1.280       .  A
O1518      C1521   1.279       .  A
C1522      C1574   1.474       .  S
C1523      C1757   1.497       .  S
C1524      C1771   1.509       .  S
C1525      C1774   1.553       .  S
C1526      C1799   1.494       .  S
C1526      C1527   1.430       .  A
C1527      C1743   1.514       .  S
C1527      C1528   1.423       .  A
C1528      C1760   1.529       .  S
C1529      C1788   1.516   1_655  S
C1530      C1732   1.515       .  S
O1531     Ni1539   1.913       .  S
O1531      C1541   1.281       .  A
O1532     Ni1539   1.917       .  S
O1532      C1542   1.279       .  A
O1533     Ni1539   1.925       .  S
O1533      C1543   1.283       .  A
O1534     Ni1539   1.925       .  S
O1534      C1544   1.282       .  A
O1535     Ni1540   1.906       .  S
O1535      C1544   1.279       .  A
O1536     Ni1540   1.902       .  S
O1536      C1543   1.279       .  A
O1537     Ni1540   1.917       .  S
O1537      C1542   1.283       .  A
O1538     Ni1540   1.921       .  S
O1538      C1541   1.281       .  A
Ni1539    Ni1540   2.391       .  S
C1542      C1592   1.467       .  S
C1543      C1746   1.488       .  S
C1544      C1729   1.478       .  S
O1545     Ni1551   1.912   1_556  S
O1545      C1566   1.267       .  A
O1546     Ni1569   1.919       .  S
O1546      C1555   1.267       .  A
O1547     Ni1551   1.899   1_556  S
O1547     Ni1563   1.918       .  S
C1548      O1565   1.278       .  A
C1548      O1557   1.275       .  A
C1548      C1642   1.465       .  S
O1549     Ni1568   1.913   1_554  S
O1549      C1555   1.267       .  A
O1550     Ni1568   1.915       .  S
O1550      C1552   1.268       .  A
Ni1551     O1556   1.910       .  S
C1552      O1562   1.270       .  A
C1552      C1627   1.471       .  S
O1553      C1559   1.278       .  A
O1554      C1559   1.276       .  A
O1556      C1558   1.267       .  A
C1558      O1564   1.268       .  A
H1560      O1561   0.966   1_554  S
Ni1563     O1567   1.917       .  S
C1566      O1567   1.267       .  A
C1566      C1608   1.463       .  S
O1571     Ni1577   1.917       .  S
O1571      C1592   1.266       .  A
O1572     Ni1595   1.915       .  S
O1572      C1581   1.268       .  A
O1573     Ni1577   1.907       .  S
O1573     Ni1595   1.918       .  S
O1573     Ni1589   1.919       .  S
O1573      H1596   0.966       .  S
C1574      O1591   1.278       .  A
C1574      O1583   1.277       .  A
O1575     Ni1594   1.920       .  S
O1575      C1581   1.268       .  A
O1576     Ni1594   1.915       .  S
O1576      C1578   1.268       .  A
Ni1577     O1580   1.921       .  S
Ni1577     O1582   1.907       .  S
C1578      O1588   1.269       .  A
O1579     Ni1595   1.934       .  S
O1579      C1585   1.278       .  A
O1580      C1585   1.275       .  A
C1581      C1641   1.467       .  S
O1582      C1584   1.265       .  A
O1583     Ni1594   1.931       .  S
C1584      O1590   1.267       .  A
C1584      C1607   1.461       .  S
C1585      C1628   1.471       .  S
H1586      O1587   0.966       .  S
O1587     Ni1595   1.920       .  S
O1587     Ni1589   1.913       .  S
O1587     Ni1594   1.907       .  S
O1588     Ni1589   1.926       .  S
Ni1589     O1593   1.917       .  S
Ni1589     O1591   1.930       .  S
O1590     Ni1595   1.922       .  S
C1592      O1593   1.268       .  A
O1597     Ni1605   1.905       .  S
O1597      C1607   1.276       .  A
O1598     Ni1605   1.902       .  S
O1598      C1608   1.279       .  A
O1599     Ni1605   1.915       .  S
O1599      C1609   1.281       .  A
O1600     Ni1605   1.913       .  S
O1600      C1610   1.281       .  A
O1601     Ni1606   1.890       .  S
O1601      C1610   1.275       .  A
O1602     Ni1606   1.901       .  S
O1602      C1609   1.279       .  A
O1603     Ni1606   1.926       .  S
O1603      C1608   1.282       .  A
O1604     Ni1606   1.930       .  S
O1604      C1607   1.284       .  A
Ni1605    Ni1606   2.391       .  S
C1609      C1704   1.496       .  S
C1610      C1715   1.463       .  S
C1611      C1662   1.516       .  S
C1611      C1612   1.425       .  A
C1611      C1616   1.425       .  A
C1612      C1718   1.511       .  S
C1612      C1613   1.430       .  A
C1613      C1687   1.514       .  S
C1613      C1614   1.435       .  A
C1614      C1645   1.519       .  S
C1614      C1615   1.435       .  A
C1615      C1701   1.513       .  S
C1615      C1616   1.430       .  A
C1616      C1673   1.511       .  S
O1617     Ni1625   1.919       .  S
O1617      C1627   1.280       .  A
O1618     Ni1625   1.921       .  S
O1618      C1628   1.282       .  A
O1619     Ni1625   1.902       .  S
O1619      C1629   1.279       .  A
O1620     Ni1625   1.905       .  S
O1620      C1630   1.279       .  A
O1621     Ni1626   1.914       .  S
O1621      C1630   1.280       .  A
O1622     Ni1626   1.908       .  S
O1622      C1629   1.280       .  A
O1623     Ni1626   1.929       .  S
O1623      C1628   1.281       .  A
O1624     Ni1626   1.930       .  S
O1624      C1627   1.283       .  A
Ni1625    Ni1626   2.384       .  S
C1629      C1659   1.494       .  S
O1631     Ni1639   1.910       .  S
O1631      C1641   1.280       .  A
O1632     Ni1639   1.913       .  S
O1632      C1642   1.277       .  A
O1633     Ni1639   1.921       .  S
O1633      C1643   1.283       .  A
O1634     Ni1639   1.913       .  S
O1634      C1644   1.281       .  A
O1635     Ni1640   1.895       .  S
O1635      C1644   1.277       .  A
O1636     Ni1640   1.889       .  S
O1636      C1643   1.275       .  A
O1637     Ni1640   1.928       .  S
O1637      C1642   1.284       .  A
O1638     Ni1640   1.924       .  S
O1638      C1641   1.282       .  A
Ni1639    Ni1640   2.388       .  S
C1645      C1646   1.426       .  A
C1645      C1650   1.424       .  A
C1646      C1647   1.412       .  A
C1646      C1651   1.443       .  S
C1647      C1648   1.402       .  A
C1648      C1649   1.403       .  A
C1649      C1650   1.409       .  A
C1649      C1652   1.455       .  S
C1650      C1653   1.443       .  S
C1651      N1658   1.157       .  T
C1652      N1657   1.157   1_655  T
C1653      N1655   1.157       .  T
C1654      N1656   1.157       .  T
C1659      C1660   1.415       .  A
C1659      C1664   1.415       .  A
C1660      C1661   1.410       .  A
C1660      C1665   1.455       .  S
C1661      C1662   1.420       .  A
C1661      C1668   1.446       .  S
C1662      C1663   1.420       .  A
C1663      C1664   1.409       .  A
C1663      C1666   1.446       .  S
C1664      C1667   1.456       .  S
C1665      N1672   1.158       .  T
C1666      N1671   1.157       .  T
C1667      N1669   1.158       .  T
C1668      N1670   1.157       .  T
C1673      C1674   1.424       .  A
C1673      C1678   1.420       .  A
C1674      C1675   1.410       .  A
C1674      C1679   1.445       .  S
C1675      C1676   1.402       .  A
C1676      C1677   1.404       .  A
C1677      C1678   1.404       .  A
C1677      C1680   1.454       .  S
C1678      C1681   1.445       .  S
C1679      N1686   1.157       .  T
C1680      N1685   1.157       .  T
C1681      N1683   1.157       .  T
C1682      N1684   1.157       .  T
C1687      C1688   1.420       .  A
C1687      C1692   1.417       .  A
C1688      C1689   1.410       .  A
C1688      C1693   1.446       .  S
C1689      C1690   1.416       .  A
C1689      C1696   1.456       .  S
C1690      C1691   1.419       .  A
C1691      C1692   1.410       .  A
C1692      C1695   1.446       .  S
C1693      N1700   1.157       .  T
C1694      N1699   1.158       .  T
C1695      N1697   1.156       .  T
C1696      N1698   1.158       .  T
C1701      C1702   1.421       .  A
C1701      C1706   1.416       .  A
C1702      C1703   1.412       .  A
C1702      C1707   1.445       .  S
C1703      C1710   1.455       .  S
C1704      C1705   1.414   1_565  A
C1705      C1708   1.453   1_545  S
C1706      C1709   1.446       .  S
C1707      N1714   1.157       .  T
C1708      N1713   1.156       .  T
C1709      N1711   1.156       .  T
C1710      N1712   1.158       .  T
C1715      C1716   1.401       .  A
C1715      C1720   1.402       .  A
C1716      C1717   1.408       .  A
C1716      C1721   1.455       .  S
C1717      C1718   1.424       .  A
C1717      C1724   1.444       .  S
C1718      C1719   1.422       .  A
C1719      C1720   1.404       .  A
C1719      C1722   1.445       .  S
C1720      C1723   1.454       .  S
C1721      N1728   1.157       .  T
C1722      N1727   1.157       .  T
C1723      N1725   1.157       .  T
C1724      N1726   1.157       .  T
C1729      C1730   1.406       .  A
C1729      C1734   1.407       .  A
C1730      C1731   1.413       .  A
C1730      C1735   1.452       .  S
C1731      C1732   1.422       .  A
C1731      C1738   1.448       .  S
C1732      C1733   1.420       .  A
C1733      C1734   1.408       .  A
C1733      C1736   1.445       .  S
C1734      C1737   1.454       .  S
C1735      N1742   1.157       .  T
C1736      N1741   1.157       .  T
C1737      N1739   1.157       .  T
C1738      N1740   1.156       .  T
C1743      C1744   1.418       .  A
C1743      C1748   1.419       .  A
C1744      C1745   1.408       .  A
C1744      C1749   1.445       .  S
C1745      C1746   1.410       .  A
C1745      C1752   1.455       .  S
C1746      C1747   1.409       .  A
C1747      C1748   1.414       .  A
C1747      C1750   1.451       .  S
C1748      C1751   1.445       .  S
C1749      N1756   1.157       .  T
C1750      N1755   1.157       .  T
C1751      N1753   1.157       .  T
C1752      N1754   1.157       .  T
C1757      C1758   1.409       .  A
C1757      C1762   1.405       .  A
C1758      C1759   1.419       .  A
C1758      C1763   1.451   1_565  S
C1759      C1760   1.423       .  A
C1759      C1766   1.444   1_565  S
C1760      C1761   1.425       .  A
C1761      C1762   1.416       .  A
C1761      C1764   1.442       .  S
C1762      C1765   1.452       .  S
C1763      N1770   1.157       .  T
C1764      N1769   1.157       .  T
C1766      N1768   1.156       .  T
C1771      C1772   1.420   1_545  A
C1772      C1773   1.401       .  A
C1772      C1777   1.449       .  S
C1773      C1774   1.414       .  A
C1773      C1780   1.450       .  S
C1775      C1776   1.417       .  A
C1775      C1778   1.443       .  S
C1776      C1779   1.450       .  S
C1777      N1784   1.158       .  T
C1778      N1783   1.157       .  T
C1779      N1781   1.157       .  T
C1780      N1782   1.158       .  T
C1785      C1786   1.415       .  A
C1786      C1787   1.412   1_455  A
C1786      C1791   1.455       .  S
C1787      C1788   1.417   1_655  A
C1787      C1794   1.444       .  S
C1789      C1790   1.416       .  A
C1789      C1792   1.448       .  S
C1790      C1793   1.451       .  S
C1791      N1798   1.157       .  T
C1792      N1797   1.157       .  T
C1793      N1795   1.157       .  T
C1794      N1796   1.156       .  T
C1799      C1800   1.408       .  A
C1799      C1804   1.415       .  A
C1800      C1801   1.409       .  A
C1800      C1805   1.452   1_655  S
C1801      C1802   1.424       .  A
C1801      C1808   1.453       .  S
C1802      C1803   1.413       .  A
C1803      C1804   1.410       .  A
C1805      N1812   1.158       .  T
C1806      N1811   1.157       .  T
C1807      N1809   1.157       .  T
C1808      N1810   1.158       .  T
C1813      C1814   1.410       .  A
C1813      C1818   1.407       .  A
C1814      C1815   1.407       .  A
C1814      C1819   1.455       .  S
C1815      C1816   1.417       .  A
C1815      C1822   1.444       .  S
C1816      C1817   1.422       .  A
C1817      C1818   1.415       .  A
C1817      C1820   1.444       .  S
C1818      C1821   1.453       .  S
C1819      N1826   1.157       .  T
C1820      N1825   1.157       .  T
C1821      N1823   1.157       .  T
C1822      N1824   1.157       .  T
C1827      C1828   1.418       .  A
C1827      C1832   1.419       .  A
C1828      C1829   1.416       .  A
C1828      C1833   1.447       .  S
C1829      C1830   1.411       .  A
C1829      C1836   1.451       .  S
C1830      C1831   1.409       .  A
C1831      C1832   1.410       .  A
C1832      C1835   1.445       .  S
C1833      N1840   1.156       .  T
C1834      N1839   1.157       .  T
C1835      N1837   1.157       .  T
C1836      N1838   1.157       .  T
C1841      C1842   1.421       .  A
C1841      C1846   1.416       .  A
C1842      C1843   1.410       .  A
C1842      C1847   1.451       .  S
C1843      C1844   1.409       .  A
C1843      C1850   1.452       .  S
C1844      C1845   1.413       .  A
C1845      C1846   1.409       .  A
C1845      C1848   1.448       .  S
C1847      N1854   1.157       .  T
C1848      N1853   1.157       .  T
C1849      N1851   1.158       .  T
C1850      N1852   1.158       .  T
C1855      C1856   1.419       .  A
C1855      C1860   1.418       .  A
C1856      C1857   1.411       .  A
C1856      C1861   1.444       .  S
C1857      C1858   1.412       .  A
C1857      C1864   1.454       .  S
C1858      C1859   1.414       .  A
C1859      C1860   1.416       .  A
C1859      C1862   1.452       .  S
C1860      C1863   1.447       .  S
C1861      N1868   1.157       .  T
C1863      N1865   1.157       .  T
C1864      N1866   1.157   1_565  T
C1869      C1870   1.417       .  A
C1869      C1874   1.412       .  A
C1870      C1871   1.404       .  A
C1870      C1875   1.449       .  S
C1871      C1872   1.415       .  A
C1872      C1873   1.423       .  A
C1873      C1874   1.414       .  A
C1873      C1876   1.450       .  S
C1874      C1877   1.442       .  S
C1875      N1882   1.158       .  T
C1876      N1881   1.157       .  T
C1877      N1879   1.157       .  T
C1878      N1880   1.157       .  T
C1883      C1884   1.420       .  A
C1883      C1888   1.422       .  A
C1884      C1885   1.411       .  A
C1884      C1889   1.442       .  S
C1885      C1886   1.410       .  A
C1885      C1892   1.455       .  S
C1886      C1887   1.409       .  A
C1887      C1888   1.417       .  A
C1887      C1890   1.452       .  S
C1888      C1891   1.444       .  S
C1889      N1896   1.157       .  T
C1890      N1895   1.157       .  T
C1891      N1893   1.157       .  T
C1892      N1894   1.157       .  T
