geometry optimzed in LAMMPS
_audit_creation_date              2020-11-30 
_audit_creation_method            'lammps2cif' 
_symmetry_space_group_name_H-M    'P1' 
_symmetry_Int_Tables_number       1 
_symmetry_cell_setting            triclinic 
loop_ 
_symmetry_equiv_pos_as_xyz 
  x,y,z 
_cell_length_a                    43.63887137 
_cell_length_b                    42.61942338919456 
_cell_length_c                    55.2094653447021 
_cell_angle_alpha                 88.00075185727705 
_cell_angle_beta                  90.48139990731762 
_cell_angle_gamma                 122.65189065897312 
loop_ 
_atom_site_label 
_atom_site_type_symbol 
_atom_site_fract_x 
_atom_site_fract_y 
_atom_site_fract_z 
_atom_site_charge 
C1          C  0.08902338  0.49577029  0.08928638     0.06300
C2          C  0.09965162  0.02110591  0.10792827    -0.09800
C3          C  0.11343442  0.01547275  0.12958213     0.03800
C4          C  0.11644369  0.48436980  0.13247572    -0.08300
C5          C  0.10568140  0.45898123  0.11383867     0.06300
C6          C  0.09214710  0.46484940  0.09228590    -0.07800
H7          H  0.09655791  0.04463908  0.10578583     0.11900
H8          H  0.12683548  0.47977655  0.14923306     0.09500
H9          H  0.08336818  0.44494972  0.07802229     0.09300
C10         C  0.16182217  0.10293091  0.22689113     0.06300
C11         C  0.15244859  0.07891490  0.20758619    -0.09800
C12         C  0.14109672  0.08658904  0.18552720     0.03800
C13         C  0.13926986  0.11845796  0.18287751    -0.08300
C14         C  0.14875285  0.14253655  0.20220281     0.06300
C15         C  0.15986063  0.13459012  0.22414902    -0.07800
H16         H  0.15432633  0.05460910  0.20963457     0.11900
H17         H  0.13056986  0.12451082  0.16586383     0.09500
H18         H  0.16737709  0.15329157  0.23903121     0.09300
C19         C  0.46751027  0.14274302  0.12265356     0.06300
C20         C  0.43958671  0.12314785  0.14002645    -0.09800
C21         C  0.41167945  0.08601905  0.13648952     0.03800
C22         C  0.41155083  0.06851165  0.11545798    -0.08300
C23         C  0.43945994  0.08797351  0.09811970     0.06300
C24         C  0.46744705  0.12510354  0.10170831    -0.07800
H25         H  0.44009274  0.13645423  0.15655098     0.11900
H26         H  0.39027038  0.03960622  0.11285106     0.09500
H27         H  0.98950736  0.13987998  0.08855585     0.09300
C28         C  0.28284506  0.46669112  0.20462346     0.06300
C29         C  0.28270964  0.48368486  0.22588598    -0.09800
C30         C  0.30898592  0.02158034  0.22899024     0.03800
C31         C  0.33524675  0.04241322  0.21085058    -0.08300
C32         C  0.33532371  0.02555654  0.18957604     0.06300
C33         C  0.30919258  0.48771529  0.18651259    -0.07800
H34         H  0.26194517  0.46774512  0.23970019     0.11900
H35         H  0.35531244  0.07178973  0.21316809     0.09500
H36         H  0.30896392  0.47479351  0.16987089     0.09300
C37         C  0.45540908  0.28748878  0.21141007     0.06300
C38         C  0.43892233  0.29780989  0.19372840    -0.09800
C39         C  0.40259363  0.28716340  0.19663416     0.03800
C40         C  0.38267090  0.26592638  0.21733075    -0.08300
C41         C  0.39914285  0.25542208  0.23500648     0.06300
C42         C  0.43550100  0.26636063  0.23199881    -0.07800
H43         H  0.45412173  0.31351093  0.17753338     0.11900
H44         H  0.35438449  0.25703798  0.21943177     0.09500
H45         H  0.44797508  0.25749601  0.24533587     0.09300
C46         C  0.31011956  0.32183791  0.12386596     0.06300
C47         C  0.32335328  0.30970473  0.14281672    -0.09800
C48         C  0.35923300  0.31826628  0.14192971     0.03800
C49         C  0.38181556  0.33904700  0.12200493    -0.08300
C50         C  0.36854207  0.35122499  0.10310181     0.06300
C51         C  0.33273925  0.34253844  0.10409112    -0.07800
H52         H  0.30599242  0.29414436  0.15832507     0.11900
H53         H  0.40964542  0.34599676  0.12132639     0.09500
H54         H  0.32265837  0.35241395  0.08964728     0.09300
O55         O  0.15509214  0.38522508  0.12526191    -0.77700
O56         O  0.16131572  0.26388012  0.19057361    -0.62400
O57         O  0.14327778  0.31549642  0.14037526    -1.09000
C58         C  0.04945465  0.29505944  0.19522132     1.09200
O59         O  0.10260660  0.22027543  0.19438009    -0.75600
O60         O  0.05036741  0.22507437  0.17263944    -0.63200
Ni61       Ni  0.18192231  0.36108304  0.12559160     1.34900
C62         C  0.04925083  0.23599293  0.15122106     0.87900
O63         O  0.19088110  0.29083803  0.14745416    -0.76100
O64         O  0.21387315  0.34284348  0.12391706    -0.86400
C65         C  0.13578373  0.23028975  0.19477247     0.87500
O66         O  0.20297921  0.38426368  0.15509204    -0.64600
O67         O  0.05394316  0.27135622  0.20666477    -0.83900
C68         C  0.20690758  0.37175140  0.17521748     0.88300
C69         C  0.21468894  0.31534614  0.13283790     1.09900
H70         H  0.12932052  0.31071410  0.19579369     0.41700
O71         O  0.11768529  0.29257677  0.18336705    -1.06500
O72         O  0.06979120  0.26948857  0.14315166    -0.63200
Ni73       Ni  0.10557899  0.31542581  0.15812060     1.26300
O74         O  0.19144816  0.33707736  0.18087668    -0.63400
O75         O  0.06776105  0.31412503  0.17649013    -0.75700
C76         C  0.12159455  0.37406945  0.12584781     0.87700
O77         O  0.09694911  0.34136775  0.13296545    -0.62900
Ni78       Ni  0.08026697  0.24816897  0.19980111     1.27400
Ni79       Ni  0.15438346  0.29146860  0.16564837     1.26100
H80         H  0.13232514  0.29816444  0.12744631     0.42300
O81         O  0.20125170  0.10647224  0.30908350    -0.77700
O82         O  0.33997748  0.15827533  0.37562152    -0.62400
O83         O  0.27301829  0.14838633  0.32718172    -1.09000
C84         C  0.31062389  0.08044804  0.28601003     1.09200
O85         O  0.38275273  0.16312052  0.35118349    -0.75600
O86         O  0.36740285  0.17664918  0.30558289    -0.63200
Ni87       Ni  0.22498303  0.13385264  0.33785473     1.34900
C88         C  0.34695028  0.17820438  0.28979474     0.87900
O89         O  0.30230949  0.18919531  0.36819325    -0.76100
O90         O  0.24198370  0.16180614  0.36720909    -0.86400
C91         C  0.37189201  0.16610423  0.37173311     0.87500
O92         O  0.21563837  0.08968456  0.35495459    -0.64600
O93         O  0.34153836  0.10368883  0.29482099    -0.83900
C94         C  0.23552206  0.08880752  0.37156529     0.88300
C95         C  0.27313708  0.18544892  0.37552237     1.09900
H96         H  0.29988062  0.09467822  0.34325009     0.41700
O97         O  0.31032112  0.11803971  0.33402987    -1.06500
O98         O  0.31317671  0.15343567  0.28829230    -0.63200
Ni99       Ni  0.27709219  0.11308521  0.30938273     1.26300
O100        O  0.26950601  0.11331782  0.37299364    -0.63400
O101        O  0.28140506  0.07754433  0.29246521    -0.75700
C102        C  0.21276879  0.10387307  0.28863600     0.87700
O103        O  0.24369421  0.10871275  0.28551083    -0.62900
Ni104      Ni  0.35864958  0.13332531  0.32340828     1.27400
Ni105      Ni  0.30620534  0.15331106  0.35173354     1.26100
H106        H  0.28354241  0.17176023  0.31803497     0.42300
C107        C  0.31481728  0.98677477  0.52995641     0.06300
C108        C  0.29373903  0.99324032  0.51350074    -0.09800
C109        C  0.25854658  0.98387697  0.52006504     0.03800
C110        C  0.24459600  0.46808100  0.54325148    -0.08300
C111        C  0.26535361  0.46150454  0.55977238     0.06300
C112        C  0.30044423  0.47097840  0.55307896    -0.07800
H113        H  0.30443757  0.00491887  0.49550602     0.11900
H114        H  0.21728736  0.46018124  0.54826036     0.09500
H115        H  0.31617075  0.46516791  0.56562936     0.09300
C116        C  0.13861692  0.49661095  0.46167508     0.06300
C117        C  0.15945101  0.48976493  0.47811803    -0.09800
C118        C  0.19459519  0.49892184  0.47160320     0.03800
C119        C  0.20873120  0.51486824  0.44847595    -0.08300
C120        C  0.18822552  0.02183632  0.43197650     0.06300
C121        C  0.15319416  0.51259235  0.43862246    -0.07800
H122        H  0.14861150  0.47796805  0.49606888     0.11900
H123        H  0.23600456  0.02260790  0.44350677     0.09500
H124        H  0.13766939  0.01870733  0.42608785     0.09300
C125        C  0.16679982  0.23362432  0.55986338     0.06300
C126        C  0.13375908  0.19923219  0.55840906    -0.09800
C127        C  0.12707763  0.17685850  0.53860473     0.03800
C128        C  0.15357727  0.18904659  0.52020530    -0.08300
C129        C  0.18665311  0.22358330  0.52170838     0.06300
C130        C  0.19312403  0.24586248  0.54151268    -0.07800
H131        H  0.11348153  0.18977502  0.57274508     0.11900
H132        H  0.14866393  0.17158381  0.50496960     0.09500
H133        H  0.21869777  0.27252560  0.54274003     0.09300
C134        C  0.28656519  0.24984108  0.43203177     0.06300
C135        C  0.26014259  0.23753616  0.45032123    -0.09800
C136        C  0.26639424  0.25987035  0.47005601     0.03800
C137        C  0.29936051  0.29451541  0.47155904    -0.08300
C138        C  0.32597632  0.30674330  0.45323541     0.06300
C139        C  0.31949674  0.28433016  0.43349021    -0.07800
H140        H  0.23465931  0.21078697  0.44909421     0.11900
H141        H  0.30411626  0.31200652  0.48674919     0.09500
H142        H  0.33985813  0.29382129  0.41920761     0.09300
C143        C  0.01300032  0.29676535  0.56427927     0.06300
C144        C  0.50035114  0.32079011  0.56365828    -0.09800
C145        C  0.48039879  0.32137570  0.54387973     0.03800
C146        C  0.47267683  0.29753093  0.52473774    -0.08300
C147        C  0.48516996  0.27334084  0.52526973     0.06300
C148        C  0.50532445  0.27290944  0.54509920    -0.07800
H149        H  0.00733221  0.34012422  0.57808562     0.11900
H150        H  0.45813392  0.29875639  0.50907568     0.09500
H151        H  0.01574942  0.25486049  0.54530223     0.09300
C152        C  0.44056574  0.18674096  0.42761760     0.06300
C153        C  0.44804011  0.21033856  0.44691877    -0.09800
C154        C  0.46810908  0.20975091  0.46674797     0.03800
C155        C  0.48071055  0.18565626  0.46715943    -0.08300
C156        C  0.47319016  0.16207149  0.44788994     0.06300
C157        C  0.45331708  0.16280749  0.42811288    -0.07800
H158        H  0.43754328  0.22832221  0.44679865     0.11900
H159        H  0.49520111  0.18431428  0.48281426     0.09500
H160        H  0.44648290  0.14366266  0.41358432     0.09300
O161        O  0.40304951  0.43583283  0.45886270    -0.77700
O162        O  0.00860587  0.06163078  0.52619843    -0.62400
O163        O  0.47052583  0.49601396  0.47382794    -1.09000
C164        C  0.47686764  0.41257503  0.53017407     1.09200
O165        O  0.05036064  0.04783106  0.53295067    -0.75600
O166        O  0.05124620  0.49266745  0.51148947    -0.63200
Ni167      Ni  0.43103671  0.48954558  0.45478815     1.34900
C168        C  0.04490076  0.48172302  0.48991492     0.87900
O169        O  0.49140675  0.06959836  0.48116281    -0.76100
O170        O  0.45537538  0.04265811  0.44902840    -0.86400
C171        C  0.04040235  0.07093144  0.53238201     0.87500
O172        O  0.40245367  0.49136048  0.48000197    -0.64600
O173        O  0.99858407  0.44095360  0.54243397    -0.83900
C174        C  0.40862902  0.00195703  0.50165719     0.88300
C175        C  0.47683318  0.07096920  0.46141909     1.09900
H176        H  0.46284343  0.47809009  0.52914839     0.41700
O177        O  0.48301699  0.48750878  0.51789212    -1.06500
O178        O  0.01380472  0.46788638  0.47997482    -0.63200
Ni179      Ni  0.46595778  0.45449493  0.49177585     1.26300
O180        O  0.43958623  0.01542711  0.51172367    -0.63400
O181        O  0.46194564  0.41385895  0.51057836    -0.75700
C182        C  0.41285880  0.41261507  0.45943599     0.87700
O183        O  0.44465320  0.42180704  0.46555813    -0.62900
Ni184      Ni  0.02262708  0.49408380  0.53683849     1.27400
Ni185      Ni  0.48748218  0.02898956  0.49995388     1.26100
H186        H  0.49075203  0.50543641  0.46261518     0.42300
C187        C  0.29131535  0.38029372  0.76530418     0.06300
C188        C  0.30028097  0.40409702  0.78469496    -0.09800
C189        C  0.31158441  0.39641443  0.80677773     0.03800
C190        C  0.31372020  0.36472780  0.80937433    -0.08300
C191        C  0.30462542  0.34085522  0.78997367     0.06300
C192        C  0.29358886  0.34881852  0.76800269    -0.07800
H193        H  0.29819977  0.42828063  0.78267675     0.11900
H194        H  0.32240872  0.35868350  0.82639643     0.09500
H195        H  0.28640164  0.33028562  0.75305618     0.09300
C196        C  0.36449578  0.48764737  0.90283784     0.06300
C197        C  0.35351704  0.46210923  0.88428892    -0.09800
C198        C  0.33947114  0.46759528  0.86271032     0.03800
C199        C  0.33654724  0.49874641  0.85980083    -0.08300
C200        C  0.34767312  0.02434578  0.87833410     0.06300
C201        C  0.36148251  0.01863740  0.89981091    -0.07800
H202        H  0.35653520  0.43852870  0.88644233     0.11900
H203        H  0.32595438  0.50322418  0.84310006     0.09500
H204        H  0.37053126  0.03869313  0.91399534     0.09300
C205        C  0.17074080  0.01702291  0.78731001     0.06300
C206        C  0.17094136  0.49998785  0.76607563    -0.09800
C207        C  0.14472255  0.46205431  0.76300086     0.03800
C208        C  0.11846779  0.44123619  0.78114530    -0.08300
C209        C  0.11832242  0.45812299  0.80238581     0.06300
C210        C  0.14437371  0.49599814  0.80541250    -0.07800
H211        H  0.19172002  0.01591950  0.75226917     0.11900
H212        H  0.09846594  0.41183333  0.77886409     0.09500
H213        H  0.14455546  0.00893555  0.82203511     0.09300
C214        C  0.48648715  0.34060304  0.86943853     0.06300
C215        C  0.51438827  0.36025638  0.85205470    -0.09800
C216        C  0.04219074  0.39744037  0.85555908     0.03800
C217        C  0.04226018  0.41493567  0.87657806    -0.08300
C218        C  0.51439558  0.39542173  0.89393663     0.06300
C219        C  0.48650078  0.35823705  0.89037873    -0.07800
H220        H  0.51391527  0.34696592  0.83553077     0.11900
H221        H  0.06344926  0.44388487  0.87915218     0.09500
H222        H  0.46445265  0.34342630  0.90353598     0.09300
C223        C  0.14377042  0.16204650  0.86816765     0.06300
C224        C  0.12113741  0.14134816  0.88794103    -0.09800
C225        C  0.08534641  0.13270413  0.88893625     0.03800
C226        C  0.07210747  0.14494915  0.87005098    -0.08300
C227        C  0.09468791  0.16570171  0.85011939     0.06300
C228        C  0.13054974  0.17420579  0.84922126    -0.07800
H229        H  0.13118979  0.13142032  0.90237095     0.11900
H230        H  0.04428595  0.13802481  0.87073111     0.09500
H231        H  0.14790300  0.18973170  0.83370321     0.09300
C232        C  0.49825195  0.19587383  0.78046499     0.06300
C233        C  0.51481181  0.18571054  0.79819248    -0.09800
C234        C  0.05116759  0.19643588  0.79530136     0.03800
C235        C  0.07104282  0.21758503  0.77456710    -0.08300
C236        C  0.05450203  0.22792694  0.75683920     0.06300
C237        C  0.01811567  0.21690903  0.75983514    -0.07800
H238        H  0.49965228  0.17008882  0.81441802     0.11900
H239        H  0.09935095  0.22654502  0.77248020     0.09500
H240        H  0.50559236  0.22566512  0.74646366     0.09300
O241        O  0.35132221  0.26341701  0.79764892    -0.77700
O242        O  0.35668380  0.14203071  0.85896206    -0.62400
O243        O  0.33612673  0.19104769  0.80861178    -1.09000
C244        C  0.23917226  0.16844243  0.85917044     1.09200
O245        O  0.29850512  0.09829766  0.86668940    -0.75600
O246        O  0.25062177  0.09940271  0.83689923    -0.63200
Ni247      Ni  0.37361376  0.23546665  0.79221997     1.34900
C248        C  0.24675117  0.11194093  0.81676375     0.87900
O249        O  0.38588717  0.16926781  0.81542608    -0.76100
O250        O  0.39988637  0.21222012  0.78534397    -0.86400
C251        C  0.33198289  0.10937191  0.86611592     0.87500
O252        O  0.40350286  0.25847581  0.81940542    -0.64600
O253        O  0.23995931  0.14093938  0.86811044    -0.83900
C254        C  0.40464031  0.24747127  0.84079507     0.88300
C255        C  0.40426234  0.18839574  0.79672817     1.09900
H256        H  0.32150867  0.18544443  0.86452384     0.41700
O257        O  0.31050853  0.16811365  0.85159706    -1.06500
O258        O  0.26233647  0.14662751  0.81109139    -0.63200
Ni259      Ni  0.29945620  0.19220448  0.82633587     1.26300
O260        O  0.38405683  0.21395482  0.84882207    -0.63400
O261        O  0.26298052  0.19290064  0.84452946    -0.75700
C262        C  0.31815000  0.25343302  0.79725296     0.87700
O263        O  0.29259640  0.21984512  0.80141997    -0.62900
Ni264      Ni  0.27179762  0.12257010  0.86638938     1.27400
Ni265      Ni  0.34814571  0.16808090  0.83383031     1.26100
H266        H  0.32447404  0.17294741  0.79616593     0.42300
O267        O  0.50172872  0.42877832  0.97345126    -0.77700
O268        O  0.45723552  0.01483665  0.04254081    -0.62400
O269        O  0.46171459  0.45630174  0.99382552    -1.09000
C270        C  0.02365865  0.06756103  0.94691038     1.09200
O271        O  0.45225333  0.05495719  0.01851928    -0.75600
O272        O  0.43257363  0.02244029  0.97449022    -0.63200
Ni273      Ni  0.47689456  0.42286274  0.00363971     1.34900
C274        C  0.43008343  0.00083050  0.95828119     0.87900
O275        O  0.42617434  0.44237422  0.03820435    -0.76100
O276        O  0.45197549  0.40954474  0.03471712    -0.86400
C277        C  0.45124583  0.04054799  0.03924118     0.87500
O278        O  0.02113377  0.46093439  0.01758512    -0.64600
O279        O  0.00159749  0.07386832  0.95711790    -0.83900
C280        C  0.02367713  0.48265622  0.03372808     0.88300
C281        C  0.43007228  0.41602044  0.04498153     1.09900
H282        H  0.01573996  0.04181200  0.00557063     0.41700
O283        O  0.49215823  0.02734975  0.99809591    -1.06500
O284        O  0.45375151  0.49259481  0.95509094    -0.63200
Ni285      Ni  0.49455887  0.49850653  0.97333850     1.26300
O286        O  0.00010610  0.49104539  0.03683121    -0.63400
O287        O  0.02769068  0.04130576  0.95372529    -0.75700
C288        C  0.50265167  0.44309458  0.95271083     0.87700
O289        O  0.49663053  0.46878475  0.94938508    -0.62900
Ni290      Ni  0.47687598  0.06069588  0.98826559     1.27400
Ni291      Ni  0.45931352  0.48514238  0.01858221     1.26100
H292        H  0.43813271  0.44186482  0.98634987     0.42300
O293        O  0.07098278  0.32060286  0.64071521    -0.77700
O294        O  0.20988526  0.37463361  0.70646327    -0.62400
O295        O  0.14339316  0.36557854  0.65793388    -1.09000
C296        C  0.18057269  0.29812208  0.61638579     1.09200
O297        O  0.25243939  0.37713353  0.68287835    -0.75600
O298        O  0.23820174  0.39380134  0.63689405    -0.63200
Ni299      Ni  0.09504932  0.35022434  0.66857358     1.34900
C300        C  0.21831828  0.39479272  0.62032537     0.87900
O301        O  0.17226292  0.40590384  0.69956882    -0.76100
O302        O  0.11212356  0.37970719  0.69724974    -0.86400
C303        C  0.24084272  0.37955813  0.70334863     0.87500
O304        O  0.08627915  0.30678925  0.68626994    -0.64600
O305        O  0.21171328  0.32158560  0.62480416    -0.83900
C306        C  0.10669599  0.30518853  0.70206688     0.88300
C307        C  0.14304273  0.40297153  0.70605518     1.09900
H308        H  0.17007397  0.31176070  0.67381224     0.41700
O309        O  0.18065669  0.33517742  0.66470980    -1.06500
O310        O  0.18428819  0.37043229  0.61895063    -0.63200
Ni311      Ni  0.14752745  0.33038405  0.64014327     1.26300
O312        O  0.14045321  0.32998237  0.70361970    -0.63400
O313        O  0.15143088  0.29456876  0.62359410    -0.75700
C314        C  0.08185229  0.31767750  0.62014858     0.87700
O315        O  0.11378066  0.32553586  0.61625377    -0.62900
Ni316      Ni  0.22871409  0.34965277  0.65411587     1.27400
Ni317      Ni  0.17657025  0.37040732  0.68258377     1.26100
H318        H  0.15384362  0.38897718  0.64875959     0.42300
C319        C  0.43372239  0.18512938  0.78901745    -0.10100
C320        C  0.46203367  0.18777466  0.78445031    -0.11600
C321        C  0.09041868  0.27517894  0.72006210    -0.10100
C322        C  0.07517300  0.25235349  0.73646969    -0.11600
C323        C  0.20814748  0.17039972  0.86455659    -0.06800
C324        C  0.17966308  0.16842187  0.86669505    -0.11600
C325        C  0.08073660  0.17743423  0.83036119    -0.10100
C326        C  0.06806551  0.18651134  0.81406783    -0.11600
C327        C  0.06224803  0.11027502  0.90912824    -0.10100
C328        C  0.04440684  0.09091708  0.92636012    -0.11600
C329        C  0.45627502  0.30369541  0.86438876    -0.10100
C330        C  0.43146857  0.27535339  0.85618490    -0.11600
C331        C  0.51320970  0.41413429  0.91474177    -0.10100
C332        C  0.51001711  0.42865692  0.93204101    -0.11600
C333        C  0.22214092  0.08425033  0.80030803    -0.10100
C334        C  0.19907160  0.05509688  0.79184927    -0.11600
C335        C  0.09186535  0.43638683  0.82126747    -0.10100
C336        C  0.06950546  0.41832495  0.83699554    -0.11600
C337        C  0.14467744  0.42609220  0.72494097    -0.10100
C338        C  0.14531517  0.44372867  0.74175993    -0.11600
C339        C  0.34514331  0.05662455  0.87530439    -0.10100
C340        C  0.34121846  0.08240958  0.87210360    -0.11600
C341        C  0.40138529  0.48835794  0.94101926    -0.10100
C342        C  0.38209386  0.48456166  0.92414052    -0.11600
C343        C  0.30687169  0.30830859  0.79232973    -0.10100
C344        C  0.31020637  0.28195799  0.79399894    -0.11600
C345        C  0.32094011  0.42101540  0.82674171    -0.10100
C346        C  0.32910729  0.44196133  0.84326206    -0.11600
C347        C  0.27771875  0.38644375  0.74294377    -0.10100
C348        C  0.26302785  0.38640150  0.72431741    -0.11600
C349        C  0.48247256  0.10619241  0.45373875    -0.10100
C350        C  0.48121641  0.13349117  0.44997028    -0.11600
C351        C  0.47248693  0.35003721  0.54166060    -0.10100
C352        C  0.47127833  0.37735871  0.53783889    -0.11600
C353        C  0.47904648  0.25065577  0.50477709    -0.10100
C354        C  0.47412910  0.23226468  0.48731840    -0.11600
C355        C  0.05685892  0.30573011  0.60035248    -0.10100
C356        C  0.03628522  0.29927368  0.58378340    -0.11600
C357        C  0.35926128  0.34290953  0.45418290    -0.10100
C358        C  0.38552407  0.37422279  0.45557112    -0.11600
C359        C  0.06758482  0.10934855  0.53630844    -0.10100
C360        C  0.09377088  0.14070551  0.53770105    -0.11600
C361        C  0.23846944  0.24728112  0.48836918    -0.10100
C362        C  0.21449058  0.23610216  0.50333974    -0.11600
C363        C  0.17813380  0.27548426  0.59708056    -0.10100
C364        C  0.17368680  0.25639818  0.58023491    -0.11600
C365        C  0.10329984  0.48942139  0.46896393    -0.10100
C366        C  0.07517466  0.48504713  0.47668447    -0.11600
C367        C  0.37831801  0.99859496  0.51485753    -0.10100
C368        C  0.35017489  0.99413658  0.52261007    -0.11600
C369        C  0.23610916  0.48924062  0.50288956    -0.10100
C370        C  0.21686084  0.49331761  0.48879277    -0.11600
C371        C  0.23547140  0.42272613  0.60094187    -0.10100
C372        C  0.24949216  0.44216825  0.58281071    -0.11600
C373        C  0.39686323  0.17804216  0.39152529    -0.10100
C374        C  0.41738100  0.18439836  0.40810589    -0.11600
C375        C  0.27987523  0.22706592  0.41169788    -0.10100
C376        C  0.27554508  0.20802771  0.39485136    -0.11600
C377        C  0.20428811  0.04132279  0.40901414    -0.10100
C378        C  0.21839608  0.06084788  0.39092926    -0.11600
C379        C  0.27422003  0.31542592  0.12532874    -0.10100
C380        C  0.24573438  0.31343786  0.12745634    -0.11600
C381        C  0.39158088  0.37353827  0.08286041    -0.10100
C382        C  0.40935924  0.39276177  0.06557050    -0.11600
C383        C  0.01994825  0.29825531  0.20290131    -0.10100
C384        C  0.49161985  0.29558187  0.20743691    -0.11600
C385        C  0.38577647  0.29727346  0.17792294    -0.10100
C386        C  0.37316280  0.30647369  0.16166379    -0.11600
C387        C  0.36320196  0.20815249  0.27176317    -0.10100
C388        C  0.37844522  0.23096530  0.25535242    -0.11600
C389        C  0.23145992  0.39946042  0.19166827    -0.10100
C390        C  0.25451226  0.42863117  0.20010153    -0.11600
C391        C  0.30842668  0.03982744  0.25026925    -0.10100
C392        C  0.30901346  0.05736063  0.26712658    -0.11600
C393        C  0.02249694  0.20803289  0.13584941    -0.10100
C394        C  0.99772847  0.17964499  0.12767700    -0.11600
C395        C  0.36184530  0.04725252  0.17072170    -0.10100
C396        C  0.38427625  0.06522718  0.15501579    -0.11600
C397        C  0.44058473  0.06929837  0.07727770    -0.10100
C398        C  0.44381800  0.05488940  0.05993182    -0.11600
C399        C  0.14686295  0.17529418  0.19978769    -0.10100
C400        C  0.14372494  0.20176834  0.19806935    -0.11600
C401        C  0.17562213  0.09684419  0.24916832    -0.10100
C402        C  0.19050266  0.09694828  0.26771040    -0.11600
C403        C  0.11227642  0.40098967  0.11994297    -0.10100
C404        C  0.10829566  0.42674958  0.11682334    -0.11600
C405        C  0.12351681  0.04096249  0.14908741    -0.10100
C406        C  0.13159527  0.06190139  0.16560058    -0.11600
C407        C  0.05234584  0.49512930  0.05101081    -0.10100
C408        C  0.07157901  0.49892289  0.06792388    -0.11600
C409        C  0.08902341  0.99577026  0.08928637     0.06300
C410        C  0.09965154  0.52110592  0.10792829    -0.09800
C411        C  0.11343444  0.51547281  0.12958212     0.03800
C412        C  0.11644369  0.98436975  0.13247572    -0.08300
C413        C  0.10568145  0.95898124  0.11383866     0.06300
C414        C  0.09214714  0.96484939  0.09228590    -0.07800
H415        H  0.09655773  0.54463904  0.10578587     0.11900
H416        H  0.12683550  0.97977649  0.14923302     0.09500
H417        H  0.08336818  0.94494969  0.07802231     0.09300
C418        C  0.16182209  0.60293084  0.22689115     0.06300
C419        C  0.15244862  0.57891488  0.20758620    -0.09800
C420        C  0.14109678  0.58658902  0.18552720     0.03800
C421        C  0.13926989  0.61845792  0.18287749    -0.08300
C422        C  0.14875271  0.64253646  0.20220281     0.06300
C423        C  0.15986048  0.63459002  0.22414903    -0.07800
H424        H  0.15432643  0.55460912  0.20963457     0.11900
H425        H  0.13056995  0.62451077  0.16586377     0.09500
H426        H  0.16737693  0.65329150  0.23903120     0.09300
C427        C  0.46751027  0.64274299  0.12265356     0.06300
C428        C  0.43958673  0.62314778  0.14002648    -0.09800
C429        C  0.41167946  0.58601898  0.13648954     0.03800
C430        C  0.41155084  0.56851158  0.11545800    -0.08300
C431        C  0.43945990  0.58797348  0.09811968     0.06300
C432        C  0.46744701  0.62510353  0.10170828    -0.07800
H433        H  0.44009273  0.63645417  0.15655101     0.11900
H434        H  0.39027041  0.53960612  0.11285110     0.09500
H435        H  0.98950732  0.63987986  0.08855586     0.09300
C436        C  0.28284505  0.96669123  0.20462344     0.06300
C437        C  0.28270968  0.98368495  0.22588600    -0.09800
C438        C  0.30898591  0.52158027  0.22899024     0.03800
C439        C  0.33524670  0.54241317  0.21085058    -0.08300
C440        C  0.33532369  0.52555646  0.18957605     0.06300
C441        C  0.30919262  0.98771538  0.18651258    -0.07800
H442        H  0.26194527  0.96774522  0.23970025     0.11900
H443        H  0.35531236  0.57178972  0.21316807     0.09500
H444        H  0.30896404  0.97479359  0.16987091     0.09300
C445        C  0.45540917  0.78748895  0.21141006     0.06300
C446        C  0.43892231  0.79780993  0.19372837    -0.09800
C447        C  0.40259357  0.78716335  0.19663416     0.03800
C448        C  0.38267090  0.76592628  0.21733077    -0.08300
C449        C  0.39914293  0.75542205  0.23500649     0.06300
C450        C  0.43550113  0.76636077  0.23199882    -0.07800
H451        H  0.45412164  0.81351098  0.17753332     0.11900
H452        H  0.35438446  0.75703781  0.21943182     0.09500
H453        H  0.44797530  0.75749621  0.24533587     0.09300
C454        C  0.31011957  0.82183797  0.12386596     0.06300
C455        C  0.32335325  0.80970473  0.14281669    -0.09800
C456        C  0.35923296  0.81826627  0.14192970     0.03800
C457        C  0.38181556  0.83904707  0.12200497    -0.08300
C458        C  0.36854207  0.85122498  0.10310180     0.06300
C459        C  0.33273925  0.84253845  0.10409110    -0.07800
H460        H  0.30599237  0.79414430  0.15832501     0.11900
H461        H  0.40964545  0.84599691  0.12132647     0.09500
H462        H  0.32265839  0.85241391  0.08964724     0.09300
O463        O  0.15509220  0.88522515  0.12526191    -0.77700
O464        O  0.16131571  0.76388012  0.19057361    -0.62400
O465        O  0.14327776  0.81549643  0.14037524    -1.09000
C466        C  0.04945462  0.79505946  0.19522139     1.09200
O467        O  0.10260657  0.72027549  0.19438009    -0.75600
O468        O  0.05036739  0.72507435  0.17263944    -0.63200
Ni469      Ni  0.18192231  0.86108306  0.12559160     1.34900
C470        C  0.04925081  0.73599293  0.15122106     0.87900
O471        O  0.19088108  0.79083800  0.14745415    -0.76100
O472        O  0.21387309  0.84284344  0.12391706    -0.86400
C473        C  0.13578369  0.73028978  0.19477248     0.87500
O474        O  0.20297916  0.88426366  0.15509205    -0.64600
O475        O  0.05394317  0.77135631  0.20666488    -0.83900
C476        C  0.20690758  0.87175139  0.17521748     0.88300
C477        C  0.21468892  0.81534612  0.13283790     1.09900
H478        H  0.12932010  0.81071351  0.19579333     0.41700
O479        O  0.11768527  0.79257680  0.18336709    -1.06500
O480        O  0.06979115  0.76948860  0.14315169    -0.63200
Ni481      Ni  0.10557898  0.81542583  0.15812062     1.26300
O482        O  0.19144813  0.83707735  0.18087670    -0.63400
O483        O  0.06776099  0.81412498  0.17649015    -0.75700
C484        C  0.12159460  0.87406949  0.12584781     0.87700
O485        O  0.09694917  0.84136779  0.13296544    -0.62900
Ni486      Ni  0.08026691  0.74816897  0.19980113     1.27400
Ni487      Ni  0.15438344  0.79146858  0.16564837     1.26100
H488        H  0.13232533  0.79816494  0.12744659     0.42300
O489        O  0.20125169  0.60647218  0.30908351    -0.77700
O490        O  0.33997753  0.65827543  0.37562150    -0.62400
O491        O  0.27301832  0.64838632  0.32718171    -1.09000
C492        C  0.31062377  0.58044797  0.28601002     1.09200
O493        O  0.38275278  0.66312056  0.35118347    -0.75600
O494        O  0.36740287  0.67664912  0.30558288    -0.63200
Ni495      Ni  0.22498304  0.63385262  0.33785472     1.34900
C496        C  0.34695029  0.67820433  0.28979474     0.87900
O497        O  0.30230940  0.68919524  0.36819323    -0.76100
O498        O  0.24198362  0.66180611  0.36720910    -0.86400
C499        C  0.37189203  0.66610425  0.37173309     0.87500
O500        O  0.21563829  0.58968454  0.35495459    -0.64600
O501        O  0.34153824  0.60368874  0.29482099    -0.83900
C502        C  0.23552197  0.58880745  0.37156527     0.88300
C503        C  0.27313703  0.68544885  0.37552238     1.09900
H504        H  0.29988066  0.59467813  0.34325012     0.41700
O505        O  0.31032115  0.61803970  0.33402987    -1.06500
O506        O  0.31317672  0.65343560  0.28829229    -0.63200
Ni507      Ni  0.27709218  0.61308517  0.30938274     1.26300
O508        O  0.26950594  0.61331772  0.37299362    -0.63400
O509        O  0.28140494  0.57754425  0.29246522    -0.75700
C510        C  0.21276877  0.60387301  0.28863601     0.87700
O511        O  0.24369420  0.60871272  0.28551084    -0.62900
Ni512      Ni  0.35864959  0.63332528  0.32340828     1.27400
Ni513      Ni  0.30620531  0.65331103  0.35173354     1.26100
H514        H  0.28354251  0.67176024  0.31803499     0.42300
C515        C  0.31481728  0.48677473  0.52995639     0.06300
C516        C  0.29373904  0.49324033  0.51350073    -0.09800
C517        C  0.25854657  0.48387696  0.52006505     0.03800
C518        C  0.24459596  0.96808097  0.54325145    -0.08300
C519        C  0.26535353  0.96150449  0.55977236     0.06300
C520        C  0.30044416  0.97097836  0.55307897    -0.07800
H521        H  0.30443761  0.50491891  0.49550602     0.11900
H522        H  0.21728733  0.96018125  0.54826031     0.09500
H523        H  0.31617062  0.96516780  0.56562935     0.09300
C524        C  0.13861690  0.99661097  0.46167506     0.06300
C525        C  0.15945098  0.98976492  0.47811803    -0.09800
C526        C  0.19459520  0.99892192  0.47160322     0.03800
C527        C  0.20873119  0.01486833  0.44847598    -0.08300
C528        C  0.18822553  0.52183626  0.43197649     0.06300
C529        C  0.15319414  0.01259240  0.43862245    -0.07800
H530        H  0.14861141  0.97796797  0.49606885     0.11900
H531        H  0.23600456  0.52260782  0.44350676     0.09500
H532        H  0.13766938  0.51870724  0.42608787     0.09300
C533        C  0.16679984  0.73362427  0.55986340     0.06300
C534        C  0.13375910  0.69923213  0.55840907    -0.09800
C535        C  0.12707768  0.67685847  0.53860472     0.03800
C536        C  0.15357730  0.68904658  0.52020528    -0.08300
C537        C  0.18665313  0.72358329  0.52170836     0.06300
C538        C  0.19312407  0.74586244  0.54151270    -0.07800
H539        H  0.11348150  0.68977497  0.57274506     0.11900
H540        H  0.14866396  0.67158381  0.50496956     0.09500
H541        H  0.21869782  0.77252554  0.54274008     0.09300
C542        C  0.28656519  0.74984109  0.43203175     0.06300
C543        C  0.26014259  0.73753614  0.45032121    -0.09800
C544        C  0.26639423  0.75987031  0.47005599     0.03800
C545        C  0.29936053  0.79451535  0.47155905    -0.08300
C546        C  0.32597636  0.80674322  0.45323543     0.06300
C547        C  0.31949676  0.78433010  0.43349022    -0.07800
H548        H  0.23465932  0.71078693  0.44909419     0.11900
H549        H  0.30411630  0.81200643  0.48674922     0.09500
H550        H  0.33985815  0.79382120  0.41920764     0.09300
C551        C  0.01300038  0.79676545  0.56427925     0.06300
C552        C  0.50035120  0.82079021  0.56365829    -0.09800
C553        C  0.48039893  0.82137584  0.54387972     0.03800
C554        C  0.47267702  0.79753106  0.52473771    -0.08300
C555        C  0.48517002  0.77334087  0.52526976     0.06300
C556        C  0.50532443  0.77290944  0.54509928    -0.07800
H557        H  0.00733222  0.84012427  0.57808565     0.11900
H558        H  0.45813418  0.79875656  0.50907563     0.09500
H559        H  0.01574930  0.75486042  0.54530226     0.09300
C560        C  0.44056560  0.68674088  0.42761763     0.06300
C561        C  0.44803999  0.71033848  0.44691880    -0.09800
C562        C  0.46810901  0.70975088  0.46674796     0.03800
C563        C  0.48071057  0.68565633  0.46715938    -0.08300
C564        C  0.47319012  0.66207148  0.44788992     0.06300
C565        C  0.45331694  0.66280740  0.42811291    -0.07800
H566        H  0.43754316  0.72832212  0.44679867     0.11900
H567        H  0.49520126  0.68431448  0.48281415     0.09500
H568        H  0.44648275  0.64366258  0.41358435     0.09300
O569        O  0.40304956  0.93583285  0.45886268    -0.77700
O570        O  0.00860581  0.56163074  0.52619846    -0.62400
O571        O  0.47052590  0.99601402  0.47382792    -1.09000
C572        C  0.47686759  0.91257506  0.53017408     1.09200
O573        O  0.05036066  0.54783111  0.53295066    -0.75600
O574        O  0.05124614  0.99266742  0.51148947    -0.63200
Ni575      Ni  0.43103679  0.98954564  0.45478814     1.34900
C576        C  0.04490071  0.98172295  0.48991493     0.87900
O577        O  0.49140664  0.56959828  0.48116281    -0.76100
O578        O  0.45537521  0.54265804  0.44902841    -0.86400
C579        C  0.04040232  0.57093146  0.53238201     0.87500
O580        O  0.40245377  0.99136062  0.48000194    -0.64600
O581        O  0.99858412  0.94095368  0.54243396    -0.83900
C582        C  0.40862899  0.50195695  0.50165720     0.88300
C583        C  0.47683306  0.57096914  0.46141909     1.09900
H584        H  0.46284314  0.97809008  0.52914857     0.41700
O585        O  0.48301699  0.98750882  0.51789212    -1.06500
O586        O  0.01380468  0.96788631  0.47997481    -0.63200
Ni587      Ni  0.46595772  0.95449491  0.49177588     1.26300
O588        O  0.43958620  0.51542700  0.51172365    -0.63400
O589        O  0.46194557  0.91385894  0.51057837    -0.75700
C590        C  0.41285882  0.91261505  0.45943598     0.87700
O591        O  0.44465320  0.92180701  0.46555815    -0.62900
Ni592      Ni  0.02262707  0.99408381  0.53683849     1.27400
Ni593      Ni  0.48748218  0.52898953  0.49995385     1.26100
H594        H  0.49075126  0.00543606  0.46261562     0.42300
C595        C  0.29131534  0.88029371  0.76530415     0.06300
C596        C  0.30028105  0.90409709  0.78469489    -0.09800
C597        C  0.31158449  0.89641455  0.80677769     0.03800
C598        C  0.31372012  0.86472782  0.80937435    -0.08300
C599        C  0.30462536  0.84085523  0.78997367     0.06300
C600        C  0.29358886  0.84881852  0.76800266    -0.07800
H601        H  0.29819990  0.92828074  0.78267663     0.11900
H602        H  0.32240849  0.85868348  0.82639650     0.09500
H603        H  0.28640173  0.83028565  0.75305614     0.09300
C604        C  0.36449569  0.98764734  0.90283788     0.06300
C605        C  0.35351701  0.96210928  0.88428891    -0.09800
C606        C  0.33947109  0.96759534  0.86271032     0.03800
C607        C  0.33654730  0.99874651  0.85980082    -0.08300
C608        C  0.34767308  0.52434573  0.87833409     0.06300
C609        C  0.36148256  0.51863742  0.89981088    -0.07800
H610        H  0.35653525  0.93852880  0.88644226     0.11900
H611        H  0.32595456  0.00322437  0.84310002     0.09500
H612        H  0.37053129  0.53869312  0.91399534     0.09300
C613        C  0.17074079  0.51702295  0.78731000     0.06300
C614        C  0.17094134  0.99998782  0.76607562    -0.09800
C615        C  0.14472258  0.96205429  0.76300086     0.03800
C616        C  0.11846790  0.94123618  0.78114530    -0.08300
C617        C  0.11832247  0.95812295  0.80238580     0.06300
C618        C  0.14437369  0.99599809  0.80541247    -0.07800
H619        H  0.19172015  0.51591953  0.75226921     0.11900
H620        H  0.09846608  0.91183335  0.77886409     0.09500
H621        H  0.14455558  0.50893562  0.82203517     0.09300
C622        C  0.48648719  0.84060305  0.86943856     0.06300
C623        C  0.51438831  0.86025641  0.85205470    -0.09800
C624        C  0.04219074  0.89744037  0.85555908     0.03800
C625        C  0.04226022  0.91493567  0.87657808    -0.08300
C626        C  0.51439556  0.89542174  0.89393663     0.06300
C627        C  0.48650079  0.85823708  0.89037875    -0.07800
H628        H  0.51391531  0.84696597  0.83553076     0.11900
H629        H  0.06344927  0.94388485  0.87915216     0.09500
H630        H  0.46445264  0.84342632  0.90353600     0.09300
C631        C  0.14377040  0.66204654  0.86816768     0.06300
C632        C  0.12113743  0.64134831  0.88794110    -0.09800
C633        C  0.08534636  0.63270412  0.88893626     0.03800
C634        C  0.07210740  0.64494906  0.87005097    -0.08300
C635        C  0.09468787  0.66570168  0.85011941     0.06300
C636        C  0.13054974  0.67420584  0.84922130    -0.07800
H637        H  0.13118988  0.63142062  0.90237107     0.11900
H638        H  0.04428584  0.63802465  0.87073108     0.09500
H639        H  0.14790299  0.68973179  0.83370326     0.09300
C640        C  0.49825194  0.69587382  0.78046498     0.06300
C641        C  0.51481185  0.68571066  0.79819251    -0.09800
C642        C  0.05116764  0.69643597  0.79530139     0.03800
C643        C  0.07104281  0.71758504  0.77456708    -0.08300
C644        C  0.05450202  0.72792694  0.75683918     0.06300
C645        C  0.01811566  0.71690898  0.75983512    -0.07800
H646        H  0.49965235  0.67008897  0.81441807     0.11900
H647        H  0.09935090  0.72654497  0.77248013     0.09500
H648        H  0.50559236  0.72566510  0.74646364     0.09300
O649        O  0.35132206  0.76341696  0.79764890    -0.77700
O650        O  0.35668389  0.64203081  0.85896207    -0.62400
O651        O  0.33612671  0.69104767  0.80861175    -1.09000
C652        C  0.23917224  0.66844242  0.85917043     1.09200
O653        O  0.29850523  0.59829784  0.86668953    -0.75600
O654        O  0.25062186  0.59940270  0.83689927    -0.63200
Ni655      Ni  0.37361370  0.73546668  0.79221996     1.34900
C656        C  0.24675125  0.61194087  0.81676376     0.87900
O657        O  0.38588721  0.66926788  0.81542610    -0.76100
O658        O  0.39988636  0.71222014  0.78534396    -0.86400
C659        C  0.33198298  0.60937202  0.86611596     0.87500
O660        O  0.40350279  0.75847594  0.81940542    -0.64600
O661        O  0.23995933  0.64093942  0.86811044    -0.83900
C662        C  0.40464031  0.74747137  0.84079505     0.88300
C663        C  0.40426235  0.68839575  0.79672818     1.09900
H664        H  0.32150872  0.68544451  0.86452381     0.41700
O665        O  0.31050857  0.66811370  0.85159705    -1.06500
O666        O  0.26233652  0.64662745  0.81109139    -0.63200
Ni667      Ni  0.29945619  0.69220448  0.82633588     1.26300
O668        O  0.38405689  0.71395490  0.84882203    -0.63400
O669        O  0.26298050  0.69290061  0.84452944    -0.75700
C670        C  0.31814984  0.75343295  0.79725295     0.87700
O671        O  0.29259628  0.71984505  0.80141998    -0.62900
Ni672      Ni  0.27179769  0.62257021  0.86638942     1.27400
Ni673      Ni  0.34814576  0.66808098  0.83383032     1.26100
H674        H  0.32447436  0.67294798  0.79616626     0.42300
O675        O  0.50172862  0.92877827  0.97345124    -0.77700
O676        O  0.45723552  0.51483660  0.04254082    -0.62400
O677        O  0.46171463  0.95630175  0.99382553    -1.09000
C678        C  0.02365865  0.56756105  0.94691039     1.09200
O679        O  0.45225339  0.55495721  0.01851932    -0.75600
O680        O  0.43257357  0.52244032  0.97449025    -0.63200
Ni681      Ni  0.47689454  0.92286271  0.00363970     1.34900
C682        C  0.43008337  0.50083052  0.95828123     0.87900
O683        O  0.42617439  0.94237428  0.03820432    -0.76100
O684        O  0.45197544  0.90954469  0.03471709    -0.86400
C685        C  0.45124594  0.54054801  0.03924122     0.87500
O686        O  0.02113369  0.96093441  0.01758513    -0.64600
O687        O  0.00159748  0.57386831  0.95711789    -0.83900
C688        C  0.02367702  0.98265620  0.03372810     0.88300
C689        C  0.43007226  0.91602044  0.04498150     1.09900
H690        H  0.01573989  0.54181195  0.00557065     0.41700
O691        O  0.49215817  0.52734973  0.99809591    -1.06500
O692        O  0.45375155  0.99259476  0.95509093    -0.63200
Ni693      Ni  0.49455892  0.99850654  0.97333850     1.26300
O694        O  0.00010600  0.99104537  0.03683122    -0.63400
O695        O  0.02769072  0.54130580  0.95372531    -0.75700
C696        C  0.50265170  0.94309462  0.95271082     0.87700
O697        O  0.49663068  0.96878487  0.94938507    -0.62900
Ni698      Ni  0.47687597  0.56069591  0.98826560     1.27400
Ni699      Ni  0.45931359  0.98514241  0.01858220     1.26100
H700        H  0.43813267  0.94186482  0.98634989     0.42300
O701        O  0.07098276  0.82060279  0.64071521    -0.77700
O702        O  0.20988527  0.87463360  0.70646327    -0.62400
O703        O  0.14339312  0.86557849  0.65793388    -1.09000
C704        C  0.18057268  0.79812202  0.61638580     1.09200
O705        O  0.25243937  0.87713347  0.68287834    -0.75600
O706        O  0.23820181  0.89380131  0.63689402    -0.63200
Ni707      Ni  0.09504927  0.85022426  0.66857357     1.34900
C708        C  0.21831832  0.89479272  0.62032538     0.87900
O709        O  0.17226282  0.90590381  0.69956879    -0.76100
O710        O  0.11212347  0.87970717  0.69724971    -0.86400
C711        C  0.24084273  0.87955813  0.70334863     0.87500
O712        O  0.08627917  0.80678920  0.68626994    -0.64600
O713        O  0.21171326  0.82158553  0.62480417    -0.83900
C714        C  0.10669601  0.80518852  0.70206688     0.88300
C715        C  0.14304265  0.90297155  0.70605512     1.09900
H716        H  0.17007402  0.81176077  0.67381224     0.41700
O717        O  0.18065669  0.83517743  0.66470980    -1.06500
O718        O  0.18428823  0.87043231  0.61895067    -0.63200
Ni719      Ni  0.14752746  0.83038405  0.64014327     1.26300
O720        O  0.14045323  0.82998235  0.70361969    -0.63400
O721        O  0.15143089  0.79456874  0.62359409    -0.75700
C722        C  0.08185232  0.81767748  0.62014857     0.87700
O723        O  0.11378072  0.82553594  0.61625377    -0.62900
Ni724      Ni  0.22871407  0.84965272  0.65411588     1.27400
Ni725      Ni  0.17657022  0.87040730  0.68258377     1.26100
H726        H  0.15384355  0.88897714  0.64875958     0.42300
C727        C  0.43372236  0.68512932  0.78901746    -0.10100
C728        C  0.46203363  0.68777459  0.78445030    -0.11600
C729        C  0.09041872  0.77517902  0.72006214    -0.10100
C730        C  0.07517301  0.75235360  0.73646972    -0.11600
C731        C  0.20814744  0.67039970  0.86455656    -0.06800
C732        C  0.17966303  0.66842182  0.86669505    -0.11600
C733        C  0.08073658  0.67743417  0.83036118    -0.10100
C734        C  0.06806556  0.68651134  0.81406781    -0.11600
C735        C  0.06224798  0.61027498  0.90912823    -0.10100
C736        C  0.04440683  0.59091706  0.92636012    -0.11600
C737        C  0.45627505  0.80369545  0.86438877    -0.10100
C738        C  0.43146860  0.77535345  0.85618489    -0.11600
C739        C  0.51320976  0.91413430  0.91474180    -0.10100
C740        C  0.51001715  0.92865693  0.93204102    -0.11600
C741        C  0.22214101  0.58425028  0.80030804    -0.10100
C742        C  0.19907164  0.55509686  0.79184928    -0.11600
C743        C  0.09186536  0.93638676  0.82126745    -0.10100
C744        C  0.06950545  0.91832495  0.83699553    -0.11600
C745        C  0.14467739  0.92609219  0.72494093    -0.10100
C746        C  0.14531513  0.94372864  0.74175991    -0.11600
C747        C  0.34514319  0.55662447  0.87530438    -0.10100
C748        C  0.34121844  0.58240959  0.87210359    -0.11600
C749        C  0.40138532  0.98835791  0.94101924    -0.10100
C750        C  0.38209379  0.98456162  0.92414055    -0.11600
C751        C  0.30687156  0.80830856  0.79232975    -0.10100
C752        C  0.31020619  0.78195792  0.79399894    -0.11600
C753        C  0.32094011  0.92101554  0.82674165    -0.10100
C754        C  0.32910724  0.94196143  0.84326204    -0.11600
C755        C  0.27771887  0.88644386  0.74294373    -0.10100
C756        C  0.26302797  0.88640165  0.72431737    -0.11600
C757        C  0.48247258  0.60619243  0.45373874    -0.10100
C758        C  0.48121651  0.63349125  0.44997027    -0.11600
C759        C  0.47248703  0.85003734  0.54166060    -0.10100
C760        C  0.47127839  0.87735880  0.53783889    -0.11600
C761        C  0.47904656  0.75065575  0.50477713    -0.10100
C762        C  0.47412911  0.73226467  0.48731841    -0.11600
C763        C  0.05685897  0.80573010  0.60035247    -0.10100
C764        C  0.03628528  0.79927379  0.58378339    -0.11600
C765        C  0.35926134  0.84290945  0.45418291    -0.10100
C766        C  0.38552410  0.87422274  0.45557111    -0.11600
C767        C  0.06758478  0.60934860  0.53630842    -0.10100
C768        C  0.09377086  0.64070554  0.53770103    -0.11600
C769        C  0.23846946  0.74728105  0.48836919    -0.10100
C770        C  0.21449062  0.73610212  0.50333975    -0.11600
C771        C  0.17813379  0.77548419  0.59708057    -0.10100
C772        C  0.17368675  0.75639813  0.58023490    -0.11600
C773        C  0.10329987  0.98942148  0.46896393    -0.10100
C774        C  0.07517466  0.98504713  0.47668449    -0.11600
C775        C  0.37831804  0.49859501  0.51485753    -0.10100
C776        C  0.35017490  0.49413661  0.52261005    -0.11600
C777        C  0.23610922  0.98924071  0.50288955    -0.10100
C778        C  0.21686087  0.99331767  0.48879276    -0.11600
C779        C  0.23547137  0.92272612  0.60094187    -0.10100
C780        C  0.24949204  0.94216821  0.58281069    -0.11600
C781        C  0.39686320  0.67804209  0.39152528    -0.10100
C782        C  0.41738091  0.68439830  0.40810591    -0.11600
C783        C  0.27987530  0.72706596  0.41169786    -0.10100
C784        C  0.27554510  0.70802768  0.39485137    -0.11600
C785        C  0.20428809  0.54132271  0.40901411    -0.10100
C786        C  0.21839597  0.56084778  0.39092921    -0.11600
C787        C  0.27422004  0.81542597  0.12532874    -0.10100
C788        C  0.24573440  0.81343793  0.12745636    -0.11600
C789        C  0.39158090  0.87353823  0.08286039    -0.10100
C790        C  0.40935924  0.89276178  0.06557048    -0.11600
C791        C  0.01994821  0.79825534  0.20290133    -0.10100
C792        C  0.49161994  0.79558203  0.20743690    -0.11600
C793        C  0.38577633  0.79727337  0.17792297    -0.10100
C794        C  0.37316269  0.80647363  0.16166380    -0.11600
C795        C  0.36320200  0.70815244  0.27176317    -0.10100
C796        C  0.37844531  0.73096523  0.25535241    -0.11600
C797        C  0.23145998  0.89946048  0.19166825    -0.10100
C798        C  0.25451225  0.92863126  0.20010152    -0.11600
C799        C  0.30842666  0.53982735  0.25026927    -0.10100
C800        C  0.30901335  0.55736055  0.26712656    -0.11600
C801        C  0.02249697  0.70803287  0.13584940    -0.10100
C802        C  0.99772849  0.67964498  0.12767698    -0.11600
C803        C  0.36184528  0.54725243  0.17072170    -0.10100
C804        C  0.38427620  0.56522713  0.15501579    -0.11600
C805        C  0.44058474  0.56929832  0.07727772    -0.10100
C806        C  0.44381810  0.55488938  0.05993186    -0.11600
C807        C  0.14686278  0.67529410  0.19978769    -0.10100
C808        C  0.14372483  0.70176831  0.19806935    -0.11600
C809        C  0.17562213  0.59684415  0.24916831    -0.10100
C810        C  0.19050265  0.59694822  0.26771040    -0.11600
C811        C  0.11227642  0.90098966  0.11994299    -0.10100
C812        C  0.10829569  0.92674957  0.11682334    -0.11600
C813        C  0.12351676  0.54096248  0.14908741    -0.10100
C814        C  0.13159530  0.56190135  0.16560060    -0.11600
C815        C  0.05234569  0.99512923  0.05101085    -0.10100
C816        C  0.07157890  0.99892280  0.06792390    -0.11600
C817        C  0.58902342  0.49577030  0.08928636     0.06300
C818        C  0.59965150  0.02110588  0.10792828    -0.09800
C819        C  0.61343429  0.01547272  0.12958215     0.03800
C820        C  0.61644372  0.48436980  0.13247571    -0.08300
C821        C  0.60568149  0.45898127  0.11383865     0.06300
C822        C  0.59214719  0.46484943  0.09228588    -0.07800
H823        H  0.59655779  0.04463906  0.10578582     0.11900
H824        H  0.62683551  0.47977656  0.14923304     0.09500
H825        H  0.58336825  0.44494973  0.07802228     0.09300
C826        C  0.66182213  0.10293091  0.22689115     0.06300
C827        C  0.65244866  0.07891494  0.20758620    -0.09800
C828        C  0.64109682  0.08658908  0.18552719     0.03800
C829        C  0.63926991  0.11845797  0.18287750    -0.08300
C830        C  0.64875275  0.14253651  0.20220281     0.06300
C831        C  0.65986052  0.13459009  0.22414903    -0.07800
H832        H  0.65432647  0.05460919  0.20963457     0.11900
H833        H  0.63056996  0.12451083  0.16586379     0.09500
H834        H  0.66737697  0.15329157  0.23903120     0.09300
C835        C  0.96751028  0.14274300  0.12265357     0.06300
C836        C  0.93958673  0.12314778  0.14002648    -0.09800
C837        C  0.91167947  0.08601899  0.13648953     0.03800
C838        C  0.91155086  0.06851162  0.11545798    -0.08300
C839        C  0.93945993  0.08797353  0.09811967     0.06300
C840        C  0.96744703  0.12510358  0.10170827    -0.07800
H841        H  0.94009276  0.13645418  0.15655101     0.11900
H842        H  0.89027045  0.03960616  0.11285107     0.09500
H843        H  0.48950740  0.13987991  0.08855590     0.09300
C844        C  0.78284504  0.46669115  0.20462345     0.06300
C845        C  0.78270965  0.48368486  0.22588599    -0.09800
C846        C  0.80898585  0.02158036  0.22899023     0.03800
C847        C  0.83524670  0.04241323  0.21085058    -0.08300
C848        C  0.83532371  0.02555652  0.18957606     0.06300
C849        C  0.80919259  0.48771533  0.18651260    -0.07800
H850        H  0.76194522  0.46774510  0.23970022     0.11900
H851        H  0.85531240  0.07178974  0.21316810     0.09500
H852        H  0.80896402  0.47479355  0.16987093     0.09300
C853        C  0.95540912  0.28748880  0.21141004     0.06300
C854        C  0.93892232  0.29780991  0.19372839    -0.09800
C855        C  0.90259360  0.28716340  0.19663418     0.03800
C856        C  0.88267092  0.26592635  0.21733077    -0.08300
C857        C  0.89914291  0.25542206  0.23500649     0.06300
C858        C  0.93550107  0.26636064  0.23199880    -0.07800
H859        H  0.95412167  0.31351096  0.17753336     0.11900
H860        H  0.85438450  0.25703791  0.21943182     0.09500
H861        H  0.94797519  0.25749603  0.24533585     0.09300
C862        C  0.81011954  0.32183792  0.12386594     0.06300
C863        C  0.82335326  0.30970474  0.14281670    -0.09800
C864        C  0.85923297  0.31826628  0.14192970     0.03800
C865        C  0.88181555  0.33904700  0.12200494    -0.08300
C866        C  0.86854208  0.35122499  0.10310181     0.06300
C867        C  0.83273925  0.34253846  0.10409111    -0.07800
H868        H  0.80599240  0.29414438  0.15832505     0.11900
H869        H  0.90964541  0.34599677  0.12132642     0.09500
H870        H  0.82265841  0.35241399  0.08964728     0.09300
O871        O  0.65509215  0.38522509  0.12526190    -0.77700
O872        O  0.66131570  0.26388010  0.19057360    -0.62400
O873        O  0.64327777  0.31549641  0.14037526    -1.09000
C874        C  0.54945459  0.29505946  0.19522132     1.09200
O875        O  0.60260655  0.22027548  0.19438010    -0.75600
O876        O  0.55036743  0.22507437  0.17263942    -0.63200
Ni877      Ni  0.68192231  0.36108304  0.12559160     1.34900
C878        C  0.54925080  0.23599293  0.15122106     0.87900
O879        O  0.69088109  0.29083803  0.14745416    -0.76100
O880        O  0.71387314  0.34284348  0.12391707    -0.86400
C881        C  0.63578367  0.23028975  0.19477244     0.87500
O882        O  0.70297917  0.38426369  0.15509205    -0.64600
O883        O  0.55394307  0.27135622  0.20666476    -0.83900
C884        C  0.70690758  0.37175140  0.17521748     0.88300
C885        C  0.71468893  0.31534614  0.13283790     1.09900
H886        H  0.62932039  0.31071402  0.19579365     0.41700
O887        O  0.61768525  0.29257676  0.18336706    -1.06500
O888        O  0.56979112  0.26948859  0.14315168    -0.63200
Ni889      Ni  0.60557898  0.31542581  0.15812060     1.26300
O890        O  0.69144813  0.33707736  0.18087669    -0.63400
O891        O  0.56776103  0.31412505  0.17649013    -0.75700
C892        C  0.62159456  0.37406944  0.12584781     0.87700
O893        O  0.59694913  0.34136773  0.13296545    -0.62900
Ni894      Ni  0.58026690  0.24816898  0.19980111     1.27400
Ni895      Ni  0.65438344  0.29146859  0.16564837     1.26100
H896        H  0.63232504  0.29816438  0.12744627     0.42300
O897        O  0.70125171  0.10647223  0.30908350    -0.77700
O898        O  0.83997744  0.15827531  0.37562151    -0.62400
O899        O  0.77301830  0.14838628  0.32718173    -1.09000
C900        C  0.81062381  0.08044804  0.28601002     1.09200
O901        O  0.88275273  0.16312048  0.35118350    -0.75600
O902        O  0.86740289  0.17664919  0.30558287    -0.63200
Ni903      Ni  0.72498304  0.13385266  0.33785471     1.34900
C904        C  0.84695029  0.17820440  0.28979475     0.87900
O905        O  0.80230938  0.18919522  0.36819322    -0.76100
O906        O  0.74198362  0.16180615  0.36720909    -0.86400
C907        C  0.87189197  0.16610422  0.37173310     0.87500
O908        O  0.71563830  0.08968459  0.35495459    -0.64600
O909        O  0.84153829  0.10368882  0.29482098    -0.83900
C910        C  0.73552196  0.08880748  0.37156527     0.88300
C911        C  0.77313701  0.18544889  0.37552235     1.09900
H912        H  0.79988066  0.09467811  0.34325009     0.41700
O913        O  0.81032114  0.11803967  0.33402987    -1.06500
O914        O  0.81317673  0.15343564  0.28829230    -0.63200
Ni915      Ni  0.77709219  0.11308518  0.30938274     1.26300
O916        O  0.76950593  0.11331772  0.37299363    -0.63400
O917        O  0.78140498  0.07754430  0.29246521    -0.75700
C918        C  0.71276880  0.10387307  0.28863601     0.87700
O919        O  0.74369423  0.10871277  0.28551084    -0.62900
Ni920      Ni  0.85864960  0.13332531  0.32340827     1.27400
Ni921      Ni  0.80620528  0.15331098  0.35173354     1.26100
H922        H  0.78354250  0.17176017  0.31803501     0.42300
C923        C  0.81481730  0.98677478  0.52995641     0.06300
C924        C  0.79373903  0.99324033  0.51350073    -0.09800
C925        C  0.75854657  0.98387696  0.52006504     0.03800
C926        C  0.74459599  0.46808103  0.54325146    -0.08300
C927        C  0.76535356  0.46150455  0.55977237     0.06300
C928        C  0.80044417  0.47097838  0.55307897    -0.07800
H929        H  0.80443758  0.00491890  0.49550601     0.11900
H930        H  0.71728735  0.46018129  0.54826031     0.09500
H931        H  0.81617065  0.46516787  0.56562937     0.09300
C932        C  0.63861690  0.49661096  0.46167507     0.06300
C933        C  0.65945099  0.48976493  0.47811804    -0.09800
C934        C  0.69459518  0.49892184  0.47160321     0.03800
C935        C  0.70873118  0.51486825  0.44847597    -0.08300
C936        C  0.68822554  0.02183633  0.43197649     0.06300
C937        C  0.65319414  0.51259235  0.43862244    -0.07800
H938        H  0.64861144  0.47796805  0.49606888     0.11900
H939        H  0.73600460  0.02260791  0.44350674     0.09500
H940        H  0.63766941  0.01870732  0.42608790     0.09300
C941        C  0.66679985  0.23362430  0.55986339     0.06300
C942        C  0.63375912  0.19923217  0.55840908    -0.09800
C943        C  0.62707767  0.17685848  0.53860475     0.03800
C944        C  0.65357731  0.18904657  0.52020531    -0.08300
C945        C  0.68665313  0.22358330  0.52170836     0.06300
C946        C  0.69312406  0.24586247  0.54151267    -0.07800
H947        H  0.61348155  0.18977504  0.57274508     0.11900
H948        H  0.64866398  0.17158378  0.50496961     0.09500
H949        H  0.71869778  0.27252558  0.54274003     0.09300
C950        C  0.78656519  0.24984109  0.43203176     0.06300
C951        C  0.76014259  0.23753616  0.45032122    -0.09800
C952        C  0.76639425  0.25987036  0.47005599     0.03800
C953        C  0.79936056  0.29451541  0.47155904    -0.08300
C954        C  0.82597639  0.30674328  0.45323542     0.06300
C955        C  0.81949678  0.28433014  0.43349022    -0.07800
H956        H  0.73465931  0.21078693  0.44909423     0.11900
H957        H  0.80411633  0.31200649  0.48674921     0.09500
H958        H  0.83985817  0.29382123  0.41920763     0.09300
C959        C  0.51300033  0.29676534  0.56427926     0.06300
C960        C  0.00035111  0.32079008  0.56365828    -0.09800
C961        C  0.98039881  0.32137568  0.54387972     0.03800
C962        C  0.97267691  0.29753093  0.52473772    -0.08300
C963        C  0.98517004  0.27334087  0.52526973     0.06300
C964        C  0.00532451  0.27290948  0.54509921    -0.07800
H965        H  0.50733228  0.34012426  0.57808562     0.11900
H966        H  0.95813401  0.29875637  0.50907566     0.09500
H967        H  0.51574934  0.25486041  0.54530221     0.09300
C968        C  0.94056563  0.18674094  0.42761762     0.06300
C969        C  0.94804003  0.21033853  0.44691880    -0.09800
C970        C  0.96810903  0.20975088  0.46674796     0.03800
C971        C  0.98071051  0.18565627  0.46715939    -0.08300
C972        C  0.97319009  0.16207147  0.44788992     0.06300
C973        C  0.95331696  0.16280746  0.42811289    -0.07800
H974        H  0.93754324  0.22832220  0.44679868     0.11900
H975        H  0.99520114  0.18431435  0.48281418     0.09500
H976        H  0.94648277  0.14366265  0.41358433     0.09300
O977        O  0.90304956  0.43583283  0.45886270    -0.77700
O978        O  0.50860587  0.06163079  0.52619845    -0.62400
O979        O  0.97052589  0.49601398  0.47382795    -1.09000
C980        C  0.97686755  0.41257498  0.53017408     1.09200
O981        O  0.55036064  0.04783106  0.53295066    -0.75600
O982        O  0.55124618  0.49266749  0.51148947    -0.63200
Ni983      Ni  0.93103678  0.48954557  0.45478815     1.34900
C984        C  0.54490075  0.48172302  0.48991493     0.87900
O985        O  0.99140668  0.06959834  0.48116281    -0.76100
O986        O  0.95537526  0.04265811  0.44902841    -0.86400
C987        C  0.54040233  0.07093143  0.53238205     0.87500
O988        O  0.90245369  0.49136046  0.48000195    -0.64600
O989        O  0.49858416  0.44095365  0.54243396    -0.83900
C990        C  0.90862907  0.00195703  0.50165720     0.88300
C991        C  0.97683311  0.07096919  0.46141909     1.09900
H992        H  0.96284284  0.47808983  0.52914871     0.41700
O993        O  0.98301700  0.48750880  0.51789211    -1.06500
O994        O  0.51380472  0.46788637  0.47997481    -0.63200
Ni995      Ni  0.96595777  0.45449493  0.49177586     1.26300
O996        O  0.93958627  0.01542708  0.51172368    -0.63400
O997        O  0.96194555  0.41385890  0.51057836    -0.75700
C998        C  0.91285885  0.41261507  0.45943599     0.87700
O999        O  0.94465325  0.42180706  0.46555813    -0.62900
Ni1000     Ni  0.52262709  0.49408384  0.53683849     1.27400
Ni1001     Ni  0.98748222  0.02898958  0.49995384     1.26100
H1002       H  0.99075211  0.50543645  0.46261521     0.42300
C1003       C  0.79131535  0.38029372  0.76530418     0.06300
C1004       C  0.80028102  0.40409706  0.78469494    -0.09800
C1005       C  0.81158443  0.39641446  0.80677772     0.03800
C1006       C  0.81372011  0.36472776  0.80937435    -0.08300
C1007       C  0.80462534  0.34085520  0.78997368     0.06300
C1008       C  0.79358888  0.34881854  0.76800269    -0.07800
H1009       H  0.79819987  0.42828071  0.78267671     0.11900
H1010       H  0.82240854  0.35868340  0.82639647     0.09500
H1011       H  0.78640175  0.33028570  0.75305615     0.09300
C1012       C  0.86449575  0.48764734  0.90283787     0.06300
C1013       C  0.85351705  0.46210924  0.88428892    -0.09800
C1014       C  0.83947109  0.46759527  0.86271032     0.03800
C1015       C  0.83654726  0.49874643  0.85980083    -0.08300
C1016       C  0.84767314  0.02434580  0.87833411     0.06300
C1017       C  0.86148259  0.01863743  0.89981090    -0.07800
H1018       H  0.85653526  0.43852874  0.88644230     0.11900
H1019       H  0.82595439  0.50322421  0.84310005     0.09500
H1020       H  0.87053134  0.03869313  0.91399535     0.09300
C1021       C  0.67074076  0.01702292  0.78731000     0.06300
C1022       C  0.67094140  0.49998785  0.76607561    -0.09800
C1023       C  0.64472259  0.46205430  0.76300085     0.03800
C1024       C  0.61846789  0.44123620  0.78114530    -0.08300
C1025       C  0.61832253  0.45812299  0.80238581     0.06300
C1026       C  0.64437382  0.49599815  0.80541249    -0.07800
H1027       H  0.69171997  0.01591950  0.75226916     0.11900
H1028       H  0.59846604  0.41183334  0.77886410     0.09500
H1029       H  0.64455552  0.00893554  0.82203516     0.09300
C1030       C  0.98648717  0.34060298  0.86943856     0.06300
C1031       C  0.01438830  0.36025635  0.85205472    -0.09800
C1032       C  0.54219075  0.39744037  0.85555908     0.03800
C1033       C  0.54226023  0.41493565  0.87657808    -0.08300
C1034       C  0.01439555  0.39542173  0.89393663     0.06300
C1035       C  0.98650077  0.35823701  0.89037875    -0.07800
H1036       H  0.01391535  0.34696591  0.83553079     0.11900
H1037       H  0.56344930  0.44388486  0.87915217     0.09500
H1038       H  0.96445265  0.34342626  0.90353601     0.09300
C1039       C  0.64377040  0.16204650  0.86816765     0.06300
C1040       C  0.62113740  0.14134816  0.88794104    -0.09800
C1041       C  0.58534637  0.13270412  0.88893625     0.03800
C1042       C  0.57210742  0.14494913  0.87005098    -0.08300
C1043       C  0.59468789  0.16570171  0.85011940     0.06300
C1044       C  0.63054973  0.17420580  0.84922126    -0.07800
H1045       H  0.63118981  0.13142035  0.90237097     0.11900
H1046       H  0.54428588  0.13802478  0.87073111     0.09500
H1047       H  0.64790298  0.18973173  0.83370319     0.09300
C1048       C  0.99825194  0.19587386  0.78046497     0.06300
C1049       C  0.01481178  0.18571056  0.79819246    -0.09800
C1050       C  0.55116760  0.19643588  0.79530137     0.03800
C1051       C  0.57104279  0.21758504  0.77456709    -0.08300
C1052       C  0.55450200  0.22792694  0.75683920     0.06300
C1053       C  0.51811566  0.21690900  0.75983515    -0.07800
H1054       H  0.99965224  0.17008884  0.81441800     0.11900
H1055       H  0.59935090  0.22654501  0.77248017     0.09500
H1056       H  0.00559240  0.22566516  0.74646365     0.09300
O1057       O  0.85132210  0.26341700  0.79764890    -0.77700
O1058       O  0.85668374  0.14203068  0.85896206    -0.62400
O1059       O  0.83612672  0.19104769  0.80861178    -1.09000
C1060       C  0.73917222  0.16844243  0.85917042     1.09200
O1061       O  0.79850506  0.09829770  0.86668954    -0.75600
O1062       O  0.75062182  0.09940270  0.83689922    -0.63200
Ni1063     Ni  0.87361370  0.23546666  0.79221996     1.34900
C1064       C  0.74675122  0.11194092  0.81676374     0.87900
O1065       O  0.88588714  0.16926779  0.81542607    -0.76100
O1066       O  0.89988638  0.21222017  0.78534399    -0.86400
C1067       C  0.83198283  0.10937190  0.86611596     0.87500
O1068       O  0.90350272  0.25847582  0.81940544    -0.64600
O1069       O  0.73995920  0.14093934  0.86811040    -0.83900
C1070       C  0.90464025  0.24747125  0.84079506     0.88300
C1071       C  0.90426234  0.18839575  0.79672818     1.09900
H1072       H  0.82150866  0.18544445  0.86452384     0.41700
O1073       O  0.81050852  0.16811365  0.85159707    -1.06500
O1074       O  0.76233652  0.14662751  0.81109139    -0.63200
Ni1075     Ni  0.79945620  0.19220448  0.82633588     1.26300
O1076       O  0.88405686  0.21395479  0.84882205    -0.63400
O1077       O  0.76298054  0.19290065  0.84452948    -0.75700
C1078       C  0.81814989  0.25343300  0.79725296     0.87700
O1079       O  0.79259632  0.21984510  0.80141999    -0.62900
Ni1080     Ni  0.77179754  0.12257011  0.86638940     1.27400
Ni1081     Ni  0.84814569  0.16808089  0.83383031     1.26100
H1082       H  0.82447402  0.17294743  0.79616592     0.42300
O1083       O  0.00172864  0.42877823  0.97345125    -0.77700
O1084       O  0.95723557  0.01483666  0.04254082    -0.62400
O1085       O  0.96171462  0.45630171  0.99382553    -1.09000
C1086       C  0.52365864  0.06756103  0.94691038     1.09200
O1087       O  0.95225335  0.05495719  0.01851929    -0.75600
O1088       O  0.93257355  0.02244031  0.97449022    -0.63200
Ni1089     Ni  0.97689453  0.42286266  0.00363971     1.34900
C1090       C  0.93008337  0.00083050  0.95828121     0.87900
O1091       O  0.92617438  0.44237424  0.03820437    -0.76100
O1092       O  0.95197543  0.40954466  0.03471710    -0.86400
C1093       C  0.95124591  0.04054801  0.03924119     0.87500
O1094       O  0.52113375  0.46093448  0.01758512    -0.64600
O1095       O  0.50159747  0.07386829  0.95711789    -0.83900
C1096       C  0.52367706  0.48265626  0.03372810     0.88300
C1097       C  0.93007227  0.41602042  0.04498153     1.09900
H1098       H  0.51574004  0.04181204  0.00557067     0.41700
O1099       O  0.99215819  0.02734974  0.99809591    -1.06500
O1100       O  0.95375157  0.49259479  0.95509092    -0.63200
Ni1101     Ni  0.99455890  0.49850652  0.97333851     1.26300
O1102       O  0.50010600  0.49104539  0.03683122    -0.63400
O1103       O  0.52769073  0.04130580  0.95372531    -0.75700
C1104       C  0.00265162  0.44309454  0.95271082     0.87700
O1105       O  0.99663060  0.46878479  0.94938509    -0.62900
Ni1106     Ni  0.97687594  0.06069588  0.98826559     1.27400
Ni1107     Ni  0.95931355  0.48514236  0.01858222     1.26100
H1108       H  0.93813268  0.44186480  0.98634988     0.42300
O1109       O  0.57098279  0.32060287  0.64071520    -0.77700
O1110       O  0.70988529  0.37463365  0.70646327    -0.62400
O1111       O  0.64339315  0.36557853  0.65793388    -1.09000
C1112       C  0.68057267  0.29812208  0.61638579     1.09200
O1113       O  0.75243940  0.37713352  0.68287834    -0.75600
O1114       O  0.73820181  0.39380136  0.63689403    -0.63200
Ni1115     Ni  0.59504931  0.35022432  0.66857357     1.34900
C1116       C  0.71831832  0.39479273  0.62032537     0.87900
O1117       O  0.67226284  0.40590384  0.69956879    -0.76100
O1118       O  0.61212349  0.37970719  0.69724972    -0.86400
C1119       C  0.74084273  0.37955814  0.70334863     0.87500
O1120       O  0.58627919  0.30678924  0.68626994    -0.64600
O1121       O  0.71171326  0.32158559  0.62480417    -0.83900
C1122       C  0.60669601  0.30518853  0.70206689     0.88300
C1123       C  0.64304266  0.40297155  0.70605514     1.09900
H1124       H  0.67007398  0.31176070  0.67381225     0.41700
O1125       O  0.68065669  0.33517743  0.66470981    -1.06500
O1126       O  0.68428824  0.37043227  0.61895064    -0.63200
Ni1127     Ni  0.64752746  0.33038405  0.64014327     1.26300
O1128       O  0.64045324  0.32998237  0.70361971    -0.63400
O1129       O  0.65143088  0.29456876  0.62359410    -0.75700
C1130       C  0.58185232  0.31767749  0.62014857     0.87700
O1131       O  0.61378069  0.32553585  0.61625378    -0.62900
Ni1132     Ni  0.72871408  0.34965277  0.65411587     1.27400
Ni1133     Ni  0.67657023  0.37040732  0.68258377     1.26100
H1134       H  0.65384359  0.38897718  0.64875958     0.42300
C1135       C  0.93372237  0.18512937  0.78901746    -0.10100
C1136       C  0.96203365  0.18777466  0.78445030    -0.11600
C1137       C  0.59041869  0.27517894  0.72006210    -0.10100
C1138       C  0.57517297  0.25235350  0.73646969    -0.11600
C1139       C  0.70814747  0.17039977  0.86455657    -0.06800
C1140       C  0.67966305  0.16842187  0.86669505    -0.11600
C1141       C  0.58073661  0.17743423  0.83036118    -0.10100
C1142       C  0.56806557  0.18651135  0.81406781    -0.11600
C1143       C  0.56224800  0.11027503  0.90912824    -0.10100
C1144       C  0.54440684  0.09091708  0.92636012    -0.11600
C1145       C  0.95627501  0.30369536  0.86438876    -0.10100
C1146       C  0.93146856  0.27535336  0.85618489    -0.11600
C1147       C  0.01320972  0.41413428  0.91474178    -0.10100
C1148       C  0.01001707  0.42865689  0.93204101    -0.11600
C1149       C  0.72214090  0.08425033  0.80030804    -0.10100
C1150       C  0.69907159  0.05509687  0.79184928    -0.11600
C1151       C  0.59186540  0.43638684  0.82126746    -0.10100
C1152       C  0.56950545  0.41832497  0.83699552    -0.11600
C1153       C  0.64467740  0.42609221  0.72494094    -0.10100
C1154       C  0.64531514  0.44372866  0.74175991    -0.11600
C1155       C  0.84514324  0.05662452  0.87530440    -0.10100
C1156       C  0.84121836  0.08240954  0.87210361    -0.11600
C1157       C  0.90138534  0.48835794  0.94101925    -0.10100
C1158       C  0.88209383  0.48456164  0.92414055    -0.11600
C1159       C  0.80687157  0.30830857  0.79232974    -0.10100
C1160       C  0.81020623  0.28195796  0.79399894    -0.11600
C1161       C  0.82094002  0.42101539  0.82674171    -0.10100
C1162       C  0.82910717  0.44196130  0.84326207    -0.11600
C1163       C  0.77771880  0.38644376  0.74294376    -0.10100
C1164       C  0.76302790  0.38640150  0.72431739    -0.11600
C1165       C  0.98247260  0.10619245  0.45373874    -0.10100
C1166       C  0.98121645  0.13349121  0.44997026    -0.11600
C1167       C  0.97248689  0.35003718  0.54166059    -0.10100
C1168       C  0.97127828  0.37735866  0.53783887    -0.11600
C1169       C  0.97904659  0.25065579  0.50477710    -0.10100
C1170       C  0.97412915  0.23226469  0.48731840    -0.11600
C1171       C  0.55685895  0.30573010  0.60035247    -0.10100
C1172       C  0.53628522  0.29927367  0.58378341    -0.11600
C1173       C  0.85926137  0.34290951  0.45418290    -0.10100
C1174       C  0.88552414  0.37422278  0.45557111    -0.11600
C1175       C  0.56758480  0.10934854  0.53630853    -0.10100
C1176       C  0.59377086  0.14070552  0.53770108    -0.11600
C1177       C  0.73846950  0.24728112  0.48836919    -0.10100
C1178       C  0.71449063  0.23610215  0.50333975    -0.11600
C1179       C  0.67813379  0.27548425  0.59708056    -0.10100
C1180       C  0.67368678  0.25639819  0.58023489    -0.11600
C1181       C  0.60329984  0.48942140  0.46896392    -0.10100
C1182       C  0.57517467  0.48504713  0.47668449    -0.11600
C1183       C  0.87831804  0.99859497  0.51485753    -0.10100
C1184       C  0.85017491  0.99413658  0.52261005    -0.11600
C1185       C  0.73610918  0.48924063  0.50288954    -0.10100
C1186       C  0.71686083  0.49331761  0.48879276    -0.11600
C1187       C  0.73547136  0.42272615  0.60094187    -0.10100
C1188       C  0.74949206  0.44216827  0.58281071    -0.11600
C1189       C  0.89686318  0.17804215  0.39152528    -0.10100
C1190       C  0.91738092  0.18439836  0.40810590    -0.11600
C1191       C  0.77987528  0.22706593  0.41169789    -0.10100
C1192       C  0.77554510  0.20802770  0.39485137    -0.11600
C1193       C  0.70428804  0.04132278  0.40901411    -0.10100
C1194       C  0.71839595  0.06084783  0.39092921    -0.11600
C1195       C  0.77422001  0.31542592  0.12532874    -0.10100
C1196       C  0.74573437  0.31343787  0.12745635    -0.11600
C1197       C  0.89158092  0.37353826  0.08286042    -0.10100
C1198       C  0.90935927  0.39276178  0.06557052    -0.11600
C1199       C  0.51994819  0.29825533  0.20290129    -0.10100
C1200       C  0.99161990  0.29558188  0.20743689    -0.11600
C1201       C  0.88577638  0.29727345  0.17792297    -0.10100
C1202       C  0.87316272  0.30647368  0.16166381    -0.11600
C1203       C  0.86320193  0.20815252  0.27176318    -0.10100
C1204       C  0.87844528  0.23096529  0.25535242    -0.11600
C1205       C  0.73145995  0.39946042  0.19166826    -0.10100
C1206       C  0.75451223  0.42863120  0.20010152    -0.11600
C1207       C  0.80842667  0.03982744  0.25026927    -0.10100
C1208       C  0.80901339  0.05736062  0.26712657    -0.11600
C1209       C  0.52249699  0.20803287  0.13584940    -0.10100
C1210       C  0.49772852  0.17964497  0.12767701    -0.11600
C1211       C  0.86184531  0.04725247  0.17072171    -0.10100
C1212       C  0.88427621  0.06522709  0.15501577    -0.11600
C1213       C  0.94058479  0.06929838  0.07727770    -0.10100
C1214       C  0.94381810  0.05488941  0.05993184    -0.11600
C1215       C  0.64686282  0.17529413  0.19978765    -0.10100
C1216       C  0.64372480  0.20176829  0.19806925    -0.11600
C1217       C  0.67562217  0.09684422  0.24916831    -0.10100
C1218       C  0.69050268  0.09694829  0.26771040    -0.11600
C1219       C  0.61227638  0.40098962  0.11994298    -0.10100
C1220       C  0.60829570  0.42674958  0.11682334    -0.11600
C1221       C  0.62351672  0.04096248  0.14908741    -0.10100
C1222       C  0.63159533  0.06190140  0.16560059    -0.11600
C1223       C  0.55234573  0.49512931  0.05101085    -0.10100
C1224       C  0.57157894  0.49892285  0.06792390    -0.11600
C1225       C  0.58902333  0.99577025  0.08928639     0.06300
C1226       C  0.59965159  0.52110593  0.10792827    -0.09800
C1227       C  0.61343443  0.51547279  0.12958212     0.03800
C1228       C  0.61644362  0.98436975  0.13247574    -0.08300
C1229       C  0.60568143  0.95898125  0.11383866     0.06300
C1230       C  0.59214706  0.96484937  0.09228592    -0.07800
H1231       H  0.59655781  0.54463907  0.10578585     0.11900
H1232       H  0.62683541  0.97977650  0.14923306     0.09500
H1233       H  0.58336808  0.94494965  0.07802233     0.09300
C1234       C  0.66182210  0.60293083  0.22689115     0.06300
C1235       C  0.65244855  0.57891482  0.20758621    -0.09800
C1236       C  0.64109674  0.58658898  0.18552721     0.03800
C1237       C  0.63926995  0.61845795  0.18287748    -0.08300
C1238       C  0.64875281  0.64253650  0.20220280     0.06300
C1239       C  0.65986055  0.63459004  0.22414902    -0.07800
H1240       H  0.65432632  0.55460903  0.20963459     0.11900
H1241       H  0.63057009  0.62451086  0.16586374     0.09500
H1242       H  0.66737699  0.65329150  0.23903122     0.09300
C1243       C  0.96751026  0.64274299  0.12265357     0.06300
C1244       C  0.93958674  0.62314779  0.14002649    -0.09800
C1245       C  0.91167944  0.58601901  0.13648954     0.03800
C1246       C  0.91155080  0.56851161  0.11545799    -0.08300
C1247       C  0.93945989  0.58797346  0.09811970     0.06300
C1248       C  0.96744701  0.62510350  0.10170830    -0.07800
H1249       H  0.94009279  0.63645415  0.15655105     0.11900
H1250       H  0.89027034  0.53960617  0.11285109     0.09500
H1251       H  0.48950733  0.63987991  0.08855583     0.09300
C1252       C  0.78284505  0.96669121  0.20462345     0.06300
C1253       C  0.78270961  0.98368495  0.22588598    -0.09800
C1254       C  0.80898588  0.52158029  0.22899024     0.03800
C1255       C  0.83524671  0.54241320  0.21085060    -0.08300
C1256       C  0.83532366  0.52555653  0.18957605     0.06300
C1257       C  0.80919259  0.98771538  0.18651258    -0.07800
H1258       H  0.76194518  0.96774522  0.23970022     0.11900
H1259       H  0.85531242  0.57178973  0.21316814     0.09500
H1260       H  0.80896397  0.97479363  0.16987088     0.09300
C1261       C  0.95540916  0.78748894  0.21141008     0.06300
C1262       C  0.93892232  0.79780989  0.19372838    -0.09800
C1263       C  0.90259360  0.78716334  0.19663416     0.03800
C1264       C  0.88267092  0.76592631  0.21733076    -0.08300
C1265       C  0.89914293  0.75542205  0.23500649     0.06300
C1266       C  0.93550114  0.76636077  0.23199883    -0.07800
H1267       H  0.95412167  0.81351088  0.17753332     0.11900
H1268       H  0.85438450  0.75703786  0.21943181     0.09500
H1269       H  0.94797533  0.75749624  0.24533589     0.09300
C1270       C  0.81011956  0.82183797  0.12386596     0.06300
C1271       C  0.82335325  0.80970472  0.14281671    -0.09800
C1272       C  0.85923296  0.81826626  0.14192971     0.03800
C1273       C  0.88181556  0.83904706  0.12200497    -0.08300
C1274       C  0.86854206  0.85122498  0.10310181     0.06300
C1275       C  0.83273924  0.84253844  0.10409110    -0.07800
H1276       H  0.80599235  0.79414428  0.15832503     0.11900
H1277       H  0.90964543  0.84599688  0.12132646     0.09500
H1278       H  0.82265836  0.85241389  0.08964724     0.09300
O1279       O  0.65509219  0.88522511  0.12526191    -0.77700
O1280       O  0.66131570  0.76388014  0.19057362    -0.62400
O1281       O  0.64327777  0.81549645  0.14037524    -1.09000
C1282       C  0.54945464  0.79505945  0.19522139     1.09200
O1283       O  0.60260659  0.72027545  0.19438007    -0.75600
O1284       O  0.55036736  0.72507436  0.17263946    -0.63200
Ni1285     Ni  0.68192234  0.86108306  0.12559160     1.34900
C1286       C  0.54925084  0.73599292  0.15122106     0.87900
O1287       O  0.69088106  0.79083799  0.14745415    -0.76100
O1288       O  0.71387313  0.84284344  0.12391707    -0.86400
C1289       C  0.63578372  0.73028978  0.19477247     0.87500
O1290       O  0.70297920  0.88426366  0.15509204    -0.64600
O1291       O  0.55394324  0.77135632  0.20666489    -0.83900
C1292       C  0.70690755  0.87175139  0.17521749     0.88300
C1293       C  0.71468892  0.81534611  0.13283790     1.09900
H1294       H  0.62932049  0.81071407  0.19579370     0.41700
O1295       O  0.61768525  0.79257677  0.18336705    -1.06500
O1296       O  0.56979121  0.76948858  0.14315168    -0.63200
Ni1297     Ni  0.60557898  0.81542586  0.15812063     1.26300
O1298       O  0.69144814  0.83707735  0.18087670    -0.63400
O1299       O  0.56776097  0.81412496  0.17649015    -0.75700
C1300       C  0.62159459  0.87406949  0.12584781     0.87700
O1301       O  0.59694913  0.84136780  0.13296545    -0.62900
Ni1302     Ni  0.58026696  0.74816898  0.19980113     1.27400
Ni1303     Ni  0.65438343  0.79146862  0.16564838     1.26100
H1304       H  0.63232543  0.79816501  0.12744662     0.42300
O1305       O  0.70125171  0.60647216  0.30908351    -0.77700
O1306       O  0.83997753  0.65827540  0.37562152    -0.62400
O1307       O  0.77301831  0.64838633  0.32718172    -1.09000
C1308       C  0.81062384  0.58044798  0.28601003     1.09200
O1309       O  0.88275277  0.66312060  0.35118346    -0.75600
O1310       O  0.86740280  0.67664910  0.30558288    -0.63200
Ni1311     Ni  0.72498303  0.63385261  0.33785472     1.34900
C1312       C  0.84695023  0.67820432  0.28979474     0.87900
O1313       O  0.80230942  0.68919526  0.36819325    -0.76100
O1314       O  0.74198363  0.66180609  0.36720910    -0.86400
C1315       C  0.87189204  0.66610425  0.37173310     0.87500
O1316       O  0.71563832  0.58968453  0.35495457    -0.64600
O1317       O  0.84153832  0.60368874  0.29482100    -0.83900
C1318       C  0.73552200  0.58880745  0.37156526     0.88300
C1319       C  0.77313702  0.68544886  0.37552238     1.09900
H1320       H  0.79988062  0.59467819  0.34325009     0.41700
O1321       O  0.81032113  0.61803969  0.33402987    -1.06500
O1322       O  0.81317666  0.65343560  0.28829229    -0.63200
Ni1323     Ni  0.77709218  0.61308517  0.30938273     1.26300
O1324       O  0.76950595  0.61331776  0.37299363    -0.63400
O1325       O  0.78140501  0.57754427  0.29246522    -0.75700
C1326       C  0.71276878  0.60387301  0.28863600     0.87700
O1327       O  0.74369420  0.60871271  0.28551081    -0.62900
Ni1328     Ni  0.85864961  0.63332529  0.32340828     1.27400
Ni1329     Ni  0.80620533  0.65331105  0.35173355     1.26100
H1330       H  0.78354251  0.67176025  0.31803501     0.42300
C1331       C  0.81481726  0.48677472  0.52995640     0.06300
C1332       C  0.79373903  0.49324032  0.51350074    -0.09800
C1333       C  0.75854658  0.48387698  0.52006504     0.03800
C1334       C  0.74459598  0.96808095  0.54325146    -0.08300
C1335       C  0.76535358  0.96150449  0.55977236     0.06300
C1336       C  0.80044421  0.97097837  0.55307897    -0.07800
H1337       H  0.80443758  0.50491888  0.49550603     0.11900
H1338       H  0.71728735  0.96018121  0.54826033     0.09500
H1339       H  0.81617069  0.96516782  0.56562937     0.09300
C1340       C  0.63861692  0.99661095  0.46167508     0.06300
C1341       C  0.65945102  0.98976491  0.47811802    -0.09800
C1342       C  0.69459523  0.99892192  0.47160320     0.03800
C1343       C  0.70873123  0.01486834  0.44847595    -0.08300
C1344       C  0.68822552  0.52183626  0.43197648     0.06300
C1345       C  0.65319417  0.01259239  0.43862248    -0.07800
H1346       H  0.64861150  0.97796798  0.49606886     0.11900
H1347       H  0.73600456  0.52260783  0.44350678     0.09500
H1348       H  0.63766939  0.51870726  0.42608783     0.09300
C1349       C  0.66679982  0.73362428  0.55986338     0.06300
C1350       C  0.63375909  0.69923216  0.55840904    -0.09800
C1351       C  0.62707769  0.67685846  0.53860473     0.03800
C1352       C  0.65357728  0.68904660  0.52020526    -0.08300
C1353       C  0.68665312  0.72358327  0.52170836     0.06300
C1354       C  0.69312407  0.74586240  0.54151271    -0.07800
H1355       H  0.61348148  0.68977500  0.57274502     0.11900
H1356       H  0.64866391  0.67158389  0.50496951     0.09500
H1357       H  0.71869783  0.77252547  0.54274009     0.09300
C1358       C  0.78656522  0.74984106  0.43203177     0.06300
C1359       C  0.76014265  0.73753610  0.45032123    -0.09800
C1360       C  0.76639425  0.75987027  0.47005601     0.03800
C1361       C  0.79936047  0.79451537  0.47155903    -0.08300
C1362       C  0.82597630  0.80674325  0.45323542     0.06300
C1363       C  0.81949677  0.78433010  0.43349025    -0.07800
H1364       H  0.73465939  0.71078689  0.44909421     0.11900
H1365       H  0.80411618  0.81200647  0.48674917     0.09500
H1366       H  0.83985818  0.79382122  0.41920768     0.09300
C1367       C  0.51300037  0.79676545  0.56427928     0.06300
C1368       C  0.00035114  0.82079017  0.56365829    -0.09800
C1369       C  0.98039887  0.82137581  0.54387973     0.03800
C1370       C  0.97267693  0.79753105  0.52473772    -0.08300
C1371       C  0.98516996  0.77334086  0.52526975     0.06300
C1372       C  0.00532444  0.77290947  0.54509922    -0.07800
H1373       H  0.50733229  0.84012433  0.57808564     0.11900
H1374       H  0.95813412  0.79875659  0.50907565     0.09500
H1375       H  0.51574926  0.75486038  0.54530236     0.09300
C1376       C  0.94056568  0.68674089  0.42761762     0.06300
C1377       C  0.94804004  0.71033849  0.44691878    -0.09800
C1378       C  0.96810903  0.70975088  0.46674796     0.03800
C1379       C  0.98071058  0.68565629  0.46715941    -0.08300
C1380       C  0.97319017  0.66207147  0.44788994     0.06300
C1381       C  0.95331703  0.66280742  0.42811290    -0.07800
H1382       H  0.93754318  0.72832212  0.44679864     0.11900
H1383       H  0.99520120  0.68431441  0.48281422     0.09500
H1384       H  0.94648285  0.64366258  0.41358434     0.09300
O1385       O  0.90304957  0.93583287  0.45886268    -0.77700
O1386       O  0.50860582  0.56163074  0.52619845    -0.62400
O1387       O  0.97052586  0.99601399  0.47382792    -1.09000
C1388       C  0.97686763  0.91257507  0.53017407     1.09200
O1389       O  0.55036066  0.54783112  0.53295067    -0.75600
O1390       O  0.55124614  0.99266739  0.51148946    -0.63200
Ni1391     Ni  0.93103677  0.98954565  0.45478814     1.34900
C1392       C  0.54490071  0.98172296  0.48991491     0.87900
O1393       O  0.99140669  0.56959829  0.48116281    -0.76100
O1394       O  0.95537530  0.54265802  0.44902840    -0.86400
C1395       C  0.54040232  0.57093147  0.53238201     0.87500
O1396       O  0.90245379  0.99136061  0.48000196    -0.64600
O1397       O  0.49858408  0.94095367  0.54243397    -0.83900
C1398       C  0.90862898  0.50195695  0.50165718     0.88300
C1399       C  0.97683311  0.57096911  0.46141909     1.09900
H1400       H  0.96284373  0.97809034  0.52914826     0.41700
O1401       O  0.98301697  0.98750880  0.51789212    -1.06500
O1402       O  0.51380467  0.96788635  0.47997481    -0.63200
Ni1403     Ni  0.96595775  0.95449492  0.49177585     1.26300
O1404       O  0.93958618  0.51542705  0.51172365    -0.63400
O1405       O  0.96194560  0.91385896  0.51057836    -0.75700
C1406       C  0.91285879  0.91261505  0.45943599     0.87700
O1407       O  0.94465317  0.92180697  0.46555815    -0.62900
Ni1408     Ni  0.52262706  0.99408381  0.53683849     1.27400
Ni1409     Ni  0.98748216  0.52898952  0.49995388     1.26100
H1410       H  0.99075181  0.00543627  0.46261529     0.42300
C1411       C  0.79131539  0.88029372  0.76530414     0.06300
C1412       C  0.80028115  0.90409710  0.78469489    -0.09800
C1413       C  0.81158459  0.89641456  0.80677768     0.03800
C1414       C  0.81372022  0.86472783  0.80937434    -0.08300
C1415       C  0.80462546  0.84085524  0.78997366     0.06300
C1416       C  0.79358893  0.84881852  0.76800266    -0.07800
H1417       H  0.79819999  0.92828074  0.78267664     0.11900
H1418       H  0.82240859  0.85868348  0.82639649     0.09500
H1419       H  0.78640175  0.83028562  0.75305615     0.09300
C1420       C  0.86449574  0.98764735  0.90283786     0.06300
C1421       C  0.85351697  0.96210924  0.88428892    -0.09800
C1422       C  0.83947111  0.96759534  0.86271032     0.03800
C1423       C  0.83654729  0.99874650  0.85980084    -0.08300
C1424       C  0.84767317  0.52434577  0.87833407     0.06300
C1425       C  0.86148261  0.51863743  0.89981088    -0.07800
H1426       H  0.85653513  0.93852871  0.88644229     0.11900
H1427       H  0.82595448  0.00322432  0.84310007     0.09500
H1428       H  0.87053138  0.53869316  0.91399532     0.09300
C1429       C  0.67074085  0.51702296  0.78730998     0.06300
C1430       C  0.67094126  0.99998783  0.76607560    -0.09800
C1431       C  0.64472250  0.96205430  0.76300084     0.03800
C1432       C  0.61846778  0.94123620  0.78114528    -0.08300
C1433       C  0.61832239  0.95812297  0.80238579     0.06300
C1434       C  0.64437368  0.99599810  0.80541249    -0.07800
H1435       H  0.69172012  0.51591952  0.75226915     0.11900
H1436       H  0.59846595  0.91183335  0.77886408     0.09500
H1437       H  0.64455568  0.50893563  0.82203515     0.09300
C1438       C  0.98648715  0.84060308  0.86943853     0.06300
C1439       C  0.01438827  0.86025642  0.85205470    -0.09800
C1440       C  0.54219074  0.89744037  0.85555908     0.03800
C1441       C  0.54226023  0.91493566  0.87657808    -0.08300
C1442       C  0.01439557  0.89542175  0.89393664     0.06300
C1443       C  0.98650077  0.85823711  0.89037872    -0.07800
H1444       H  0.01391524  0.84696595  0.83553077     0.11900
H1445       H  0.56344934  0.94388481  0.87915220     0.09500
H1446       H  0.96445261  0.84342636  0.90353595     0.09300
C1447       C  0.64377041  0.66204653  0.86816767     0.06300
C1448       C  0.62113744  0.64134831  0.88794109    -0.09800
C1449       C  0.58534641  0.63270418  0.88893627     0.03800
C1450       C  0.57210745  0.64494909  0.87005097    -0.08300
C1451       C  0.59468790  0.66570169  0.85011940     0.06300
C1452       C  0.63054977  0.67420586  0.84922130    -0.07800
H1453       H  0.63118987  0.63142061  0.90237106     0.11900
H1454       H  0.54428592  0.63802470  0.87073108     0.09500
H1455       H  0.64790307  0.68973185  0.83370329     0.09300
C1456       C  0.99825198  0.69587386  0.78046498     0.06300
C1457       C  0.01481186  0.68571066  0.79819251    -0.09800
C1458       C  0.55116766  0.69643598  0.79530138     0.03800
C1459       C  0.57104284  0.71758505  0.77456708    -0.08300
C1460       C  0.55450203  0.72792694  0.75683918     0.06300
C1461       C  0.51811564  0.71690897  0.75983513    -0.07800
H1462       H  0.99965234  0.67008898  0.81441807     0.11900
H1463       H  0.59935096  0.72654500  0.77248013     0.09500
H1464       H  0.00559235  0.72566509  0.74646363     0.09300
O1465       O  0.85132215  0.76341696  0.79764891    -0.77700
O1466       O  0.85668387  0.64203079  0.85896207    -0.62400
O1467       O  0.83612670  0.69104766  0.80861176    -1.09000
C1468       C  0.73917223  0.66844241  0.85917043     1.09200
O1469       O  0.79850521  0.59829778  0.86668954    -0.75600
O1470       O  0.75062187  0.59940267  0.83689922    -0.63200
Ni1471     Ni  0.87361375  0.73546666  0.79221997     1.34900
C1472       C  0.74675119  0.61194089  0.81676376     0.87900
O1473       O  0.88588724  0.66926790  0.81542612    -0.76100
O1474       O  0.89988636  0.71222009  0.78534395    -0.86400
C1475       C  0.83198298  0.60937200  0.86611596     0.87500
O1476       O  0.90350289  0.75847593  0.81940540    -0.64600
O1477       O  0.73995930  0.64093939  0.86811043    -0.83900
C1478       C  0.90464031  0.74747137  0.84079505     0.88300
C1479       C  0.90426237  0.68839575  0.79672818     1.09900
H1480       H  0.82150863  0.68544440  0.86452385     0.41700
O1481       O  0.81050849  0.66811363  0.85159706    -1.06500
O1482       O  0.76233642  0.64662747  0.81109141    -0.63200
Ni1483     Ni  0.79945616  0.69220447  0.82633589     1.26300
O1484       O  0.88405681  0.71395491  0.84882205    -0.63400
O1485       O  0.76298046  0.69290060  0.84452943    -0.75700
C1486       C  0.81814993  0.75343296  0.79725295     0.87700
O1487       O  0.79259634  0.71984507  0.80141997    -0.62900
Ni1488     Ni  0.77179762  0.62257011  0.86638941     1.27400
Ni1489     Ni  0.84814573  0.66808096  0.83383033     1.26100
H1490       H  0.82447435  0.67294796  0.79616627     0.42300
O1491       O  0.00172868  0.92877832  0.97345125    -0.77700
O1492       O  0.95723547  0.51483659  0.04254081    -0.62400
O1493       O  0.96171457  0.95630174  0.99382553    -1.09000
C1494       C  0.52365869  0.56756106  0.94691039     1.09200
O1495       O  0.95225334  0.55495721  0.01851931    -0.75600
O1496       O  0.93257363  0.52244030  0.97449024    -0.63200
Ni1497     Ni  0.97689450  0.92286271  0.00363970     1.34900
C1498       C  0.93008344  0.50083052  0.95828121     0.87900
O1499       O  0.92617438  0.94237430  0.03820438    -0.76100
O1500       O  0.95197541  0.90954470  0.03471710    -0.86400
C1501       C  0.95124588  0.54054800  0.03924121     0.87500
O1502       O  0.52113377  0.96093440  0.01758512    -0.64600
O1503       O  0.50159750  0.57386830  0.95711790    -0.83900
C1504       C  0.52367710  0.98265619  0.03372809     0.88300
C1505       C  0.93007225  0.91602045  0.04498153     1.09900
H1506       H  0.51574002  0.54181202  0.00557067     0.41700
O1507       O  0.99215818  0.52734972  0.99809592    -1.06500
O1508       O  0.95375149  0.99259477  0.95509095    -0.63200
Ni1509     Ni  0.99455886  0.99850653  0.97333850     1.26300
O1510       O  0.50010607  0.99104537  0.03683121    -0.63400
O1511       O  0.52769075  0.54130580  0.95372530    -0.75700
C1512       C  0.00265171  0.94309464  0.95271082     0.87700
O1513       O  0.99663058  0.96878482  0.94938508    -0.62900
Ni1514     Ni  0.97687597  0.56069591  0.98826560     1.27400
Ni1515     Ni  0.95931354  0.98514241  0.01858221     1.26100
H1516       H  0.93813266  0.94186483  0.98634989     0.42300
O1517       O  0.57098278  0.82060279  0.64071521    -0.77700
O1518       O  0.70988523  0.87463358  0.70646328    -0.62400
O1519       O  0.64339314  0.86557849  0.65793389    -1.09000
C1520       C  0.68057265  0.79812202  0.61638579     1.09200
O1521       O  0.75243934  0.87713347  0.68287835    -0.75600
O1522       O  0.73820177  0.89380133  0.63689406    -0.63200
Ni1523     Ni  0.59504928  0.85022428  0.66857358     1.34900
C1524       C  0.71831831  0.89479272  0.62032538     0.87900
O1525       O  0.67226284  0.90590377  0.69956883    -0.76100
O1526       O  0.61212349  0.87970713  0.69724974    -0.86400
C1527       C  0.74084269  0.87955813  0.70334864     0.87500
O1528       O  0.58627914  0.80678923  0.68626996    -0.64600
O1529       O  0.71171324  0.82158555  0.62480415    -0.83900
C1530       C  0.60669600  0.80518852  0.70206688     0.88300
C1531       C  0.64304265  0.90297145  0.70605519     1.09900
H1532       H  0.67007403  0.81176083  0.67381221     0.41700
O1533       O  0.68065670  0.83517742  0.66470980    -1.06500
O1534       O  0.68428824  0.87043229  0.61895064    -0.63200
Ni1535     Ni  0.64752748  0.83038405  0.64014326     1.26300
O1536       O  0.64045324  0.82998230  0.70361966    -0.63400
O1537       O  0.65143086  0.79456871  0.62359411    -0.75700
C1538       C  0.58185233  0.81767749  0.62014858     0.87700
O1539       O  0.61378073  0.82553592  0.61625377    -0.62900
Ni1540     Ni  0.72871408  0.84965273  0.65411587     1.27400
Ni1541     Ni  0.67657024  0.87040729  0.68258377     1.26100
H1542       H  0.65384360  0.88897714  0.64875959     0.42300
C1543       C  0.93372243  0.68512940  0.78901747    -0.10100
C1544       C  0.96203374  0.68777474  0.78445031    -0.11600
C1545       C  0.59041870  0.77517903  0.72006214    -0.10100
C1546       C  0.57517301  0.75235360  0.73646972    -0.11600
C1547       C  0.70814745  0.67039968  0.86455659    -0.06800
C1548       C  0.67966304  0.66842181  0.86669506    -0.11600
C1549       C  0.58073658  0.67743417  0.83036118    -0.10100
C1550       C  0.56806557  0.68651134  0.81406781    -0.11600
C1551       C  0.56224804  0.61027510  0.90912826    -0.10100
C1552       C  0.54440684  0.59091711  0.92636012    -0.11600
C1553       C  0.95627503  0.80369544  0.86438878    -0.10100
C1554       C  0.93146857  0.77535344  0.85618491    -0.11600
C1555       C  0.01320970  0.91413430  0.91474179    -0.10100
C1556       C  0.01001711  0.92865694  0.93204101    -0.11600
C1557       C  0.72214090  0.58425034  0.80030804    -0.10100
C1558       C  0.69907159  0.55509694  0.79184923    -0.11600
C1559       C  0.59186531  0.93638678  0.82126744    -0.10100
C1560       C  0.56950545  0.91832494  0.83699554    -0.11600
C1561       C  0.64467737  0.92609213  0.72494097    -0.10100
C1562       C  0.64531512  0.94372862  0.74175992    -0.11600
C1563       C  0.84514329  0.55662450  0.87530438    -0.10100
C1564       C  0.84121849  0.58240959  0.87210359    -0.11600
C1565       C  0.90138531  0.98835790  0.94101923    -0.10100
C1566       C  0.88209384  0.98456161  0.92414052    -0.11600
C1567       C  0.80687166  0.80830856  0.79232975    -0.10100
C1568       C  0.81020629  0.78195794  0.79399894    -0.11600
C1569       C  0.82094021  0.92101555  0.82674166    -0.10100
C1570       C  0.82910732  0.94196145  0.84326203    -0.11600
C1571       C  0.77771880  0.88644384  0.74294375    -0.10100
C1572       C  0.76302789  0.88640164  0.72431740    -0.11600
C1573       C  0.98247254  0.60619236  0.45373874    -0.10100
C1574       C  0.98121647  0.63349117  0.44997028    -0.11600
C1575       C  0.97248702  0.85003735  0.54166060    -0.10100
C1576       C  0.97127837  0.87735880  0.53783890    -0.11600
C1577       C  0.97904653  0.75065577  0.50477711    -0.10100
C1578       C  0.97412908  0.73226466  0.48731841    -0.11600
C1579       C  0.55685897  0.80573013  0.60035248    -0.10100
C1580       C  0.53628529  0.79927380  0.58378341    -0.11600
C1581       C  0.85926124  0.84290949  0.45418290    -0.10100
C1582       C  0.88552403  0.87422276  0.45557112    -0.11600
C1583       C  0.56758477  0.60934861  0.53630842    -0.10100
C1584       C  0.59377089  0.64070552  0.53770104    -0.11600
C1585       C  0.73846947  0.74728102  0.48836919    -0.10100
C1586       C  0.71449060  0.73610212  0.50333974    -0.11600
C1587       C  0.67813374  0.77548419  0.59708056    -0.10100
C1588       C  0.67368675  0.75639813  0.58023490    -0.11600
C1589       C  0.60329988  0.98942147  0.46896394    -0.10100
C1590       C  0.57517465  0.98504713  0.47668446    -0.11600
C1591       C  0.87831801  0.49859499  0.51485752    -0.10100
C1592       C  0.85017489  0.49413659  0.52261007    -0.11600
C1593       C  0.73610918  0.98924070  0.50288958    -0.10100
C1594       C  0.71686085  0.99331767  0.48879277    -0.11600
C1595       C  0.73547141  0.92272612  0.60094187    -0.10100
C1596       C  0.74949211  0.94216820  0.58281070    -0.11600
C1597       C  0.89686325  0.67804209  0.39152527    -0.10100
C1598       C  0.91738098  0.68439828  0.40810589    -0.11600
C1599       C  0.77987524  0.72706598  0.41169784    -0.10100
C1600       C  0.77554503  0.70802769  0.39485135    -0.11600
C1601       C  0.70428808  0.54132271  0.40901411    -0.10100
C1602       C  0.71839600  0.56084777  0.39092921    -0.11600
C1603       C  0.77422004  0.81542597  0.12532874    -0.10100
C1604       C  0.74573438  0.81343790  0.12745636    -0.11600
C1605       C  0.89158091  0.87353821  0.08286040    -0.10100
C1606       C  0.90935921  0.89276175  0.06557049    -0.11600
C1607       C  0.51994823  0.79825532  0.20290134    -0.10100
C1608       C  0.99161992  0.79558203  0.20743691    -0.11600
C1609       C  0.88577640  0.79727338  0.17792294    -0.10100
C1610       C  0.87316274  0.80647363  0.16166379    -0.11600
C1611       C  0.86320195  0.70815243  0.27176317    -0.10100
C1612       C  0.87844531  0.73096522  0.25535242    -0.11600
C1613       C  0.73145992  0.89946048  0.19166827    -0.10100
C1614       C  0.75451227  0.92863124  0.20010153    -0.11600
C1615       C  0.80842660  0.53982735  0.25026926    -0.10100
C1616       C  0.80901339  0.55736056  0.26712657    -0.11600
C1617       C  0.52249702  0.70803286  0.13584938    -0.10100
C1618       C  0.49772849  0.67964500  0.12767698    -0.11600
C1619       C  0.86184525  0.54725249  0.17072170    -0.10100
C1620       C  0.88427621  0.56522714  0.15501579    -0.11600
C1621       C  0.94058471  0.56929832  0.07727772    -0.10100
C1622       C  0.94381809  0.55488940  0.05993186    -0.11600
C1623       C  0.64686289  0.67529414  0.19978768    -0.10100
C1624       C  0.64372493  0.70176835  0.19806935    -0.11600
C1625       C  0.67562207  0.59684413  0.24916833    -0.10100
C1626       C  0.69050261  0.59694822  0.26771041    -0.11600
C1627       C  0.61227645  0.90098970  0.11994298    -0.10100
C1628       C  0.60829565  0.92674958  0.11682333    -0.11600
C1629       C  0.62351682  0.54096249  0.14908740    -0.10100
C1630       C  0.63159535  0.56190136  0.16560059    -0.11600
C1631       C  0.55234578  0.99512924  0.05101082    -0.10100
C1632       C  0.57157895  0.99892282  0.06792389    -0.11600
loop_ 
_geom_bond_atom_site_label_1 
_geom_bond_atom_site_label_2 
_geom_bond_distance 
_geom_bond_site_symmetry_2 
_ccdc_geom_bond_type 
C1            C6   1.400       .  A
C1          C410   1.403       .  A
C1          C408   1.440       .  S
C2            C3   1.404       .  A
C2          C409   1.403   1_545  A
C2            H7   1.084       .  S
C3          C412   1.405   1_545  A
C3          C405   1.446       .  S
C4            C5   1.404       .  A
C4          C411   1.405       .  A
C4            H8   1.084       .  S
C5            C6   1.398       .  A
C5          C404   1.442       .  S
C6            H9   1.085       .  S
C10          C11   1.403       .  A
C10          C15   1.400       .  A
C10         C401   1.441       .  S
C11          C12   1.404       .  A
C11          H16   1.084       .  S
C12          C13   1.405       .  A
C12         C406   1.446       .  S
C13          C14   1.405       .  A
C13          H17   1.084       .  S
C14          C15   1.399       .  A
C14         C399   1.444       .  S
C15          H18   1.085       .  S
C19          C20   1.403       .  A
C19          C24   1.400       .  A
C19        C1210   1.441       .  S
C20          C21   1.401       .  A
C20          H25   1.085       .  S
C21          C22   1.400       .  A
C21         C396   1.441       .  S
C22          C23   1.401       .  A
C22          H26   1.085       .  S
C23          C24   1.403       .  A
C23         C397   1.438       .  S
C24         H843   1.085       .  S
H27         C840   1.085       .  S
C28          C29   1.402       .  A
C28          C33   1.403       .  A
C28         C390   1.443       .  S
C29         C438   1.404       .  A
C29          H34   1.084       .  S
C30          C31   1.401       .  A
C30         C437   1.404   1_545  A
C30         C391   1.439       .  S
C31          C32   1.399       .  A
C31          H35   1.085       .  S
C32         C441   1.400   1_545  A
C32         C395   1.441       .  S
C33         C440   1.400       .  A
C33          H36   1.085       .  S
C37          C38   1.401       .  A
C37          C42   1.400       .  A
C37         C384   1.441       .  S
C38          C39   1.403       .  A
C38          H43   1.085       .  S
C39          C40   1.406       .  A
C39         C385   1.445       .  S
C40          C41   1.405       .  A
C40          H44   1.084       .  S
C41          C42   1.401       .  A
C41         C388   1.443       .  S
C42          H45   1.085       .  S
C46          C47   1.404       .  A
C46          C51   1.399       .  A
C46         C379   1.440       .  S
C47          C48   1.404       .  A
C47          H52   1.084       .  S
C48          C49   1.405       .  A
C48         C386   1.446       .  S
C49          C50   1.404       .  A
C49          H53   1.084       .  S
C50          C51   1.399       .  A
C50         C381   1.441       .  S
C51          H54   1.085       .  S
O55         Ni61   1.931       .  S
O55          C76   1.270       .  A
O56         Ni79   1.906       .  S
O56          C65   1.267       .  A
O57         Ni61   1.914       .  S
O57         Ni79   1.912       .  S
O57         Ni73   1.920       .  S
O57          H80   0.966       .  S
C58         C383   1.435       .  S
C58          O75   1.274       .  A
C58          O67   1.275       .  A
O59         Ni78   1.932       .  S
O59          C65   1.270       .  A
O60         Ni78   1.898       .  S
O60          C62   1.266       .  A
Ni61         O64   1.932       .  S
Ni61         O66   1.892       .  S
C62         C393   1.434       .  S
C62          O72   1.273       .  A
O63         Ni79   1.903       .  S
O63          C69   1.267       .  A
O64          C69   1.273       .  A
C65         C400   1.438       .  S
O66          C68   1.266       .  A
O67         Ni78   1.923       .  S
C68         C389   1.435       .  S
C68          O74   1.278       .  A
C69         C380   1.434       .  S
H70          O71   0.966       .  S
O71         Ni79   1.907       .  S
O71         Ni73   1.902       .  S
O71         Ni78   1.908       .  S
O72         Ni73   1.936       .  S
Ni73         O77   1.904       .  S
Ni73         O75   1.919       .  S
O74         Ni79   1.949       .  S
C76         C403   1.436       .  S
C76          O77   1.267       .  A
O81         Ni87   1.938       .  S
O81         C102   1.272       .  A
O82        Ni105   1.899       .  S
O82          C91   1.263       .  A
O83         Ni87   1.929       .  S
O83        Ni105   1.907       .  S
O83         Ni99   1.912       .  S
O83         H106   0.966       .  S
C84         C392   1.434       .  S
C84         O101   1.266       .  A
C84          O93   1.272       .  A
O85        Ni104   1.933       .  S
O85          C91   1.270       .  A
O86        Ni104   1.908       .  S
O86          C88   1.268       .  A
Ni87         O90   1.938       .  S
Ni87         O92   1.912       .  S
C88         C387   1.439       .  S
C88          O98   1.272       .  A
O89        Ni105   1.890       .  S
O89          C95   1.263       .  A
O90          C95   1.272       .  A
C91         C373   1.436       .  S
O92          C94   1.271       .  A
O93        Ni104   1.935       .  S
C94         C378   1.444       .  S
C94         O100   1.276       .  A
C95         C376   1.427       .  S
H96          O97   0.968       .  S
O97        Ni105   1.909       .  S
O97         Ni99   1.912       .  S
O97        Ni104   1.931       .  S
O98         Ni99   1.940       .  S
Ni99        O103   1.894       .  S
Ni99        O101   1.900       .  S
O100       Ni105   1.948       .  S
C102        C402   1.436       .  S
C102        O103   1.263       .  A
C107        C108   1.410       .  A
C107        C520   1.405       .  A
C107        C368   1.457       .  S
C108        C109   1.410       .  A
C108        H113   1.084   1_565  S
C109        C518   1.405       .  A
C109        C777   1.456       .  S
C110        C111   1.405       .  A
C110        C517   1.405       .  A
C110        H114   1.084       .  S
C111        C112   1.406       .  A
C111        C372   1.450       .  S
C112        C515   1.405       .  A
C112        H115   1.084       .  S
C116        C117   1.411       .  A
C116        C121   1.405       .  A
C116        C365   1.457       .  S
C117        C118   1.410       .  A
C117        H122   1.084       .  S
C118        C119   1.405       .  A
C118        C370   1.456       .  S
C119        C528   1.405       .  A
C119        H531   1.085       .  S
C120        C527   1.405       .  A
C120        C529   1.406       .  A
C120        C377   1.450       .  S
C121        C528   1.406       .  A
C121        H532   1.084       .  S
H123        C527   1.085       .  S
H124        C529   1.084       .  S
C125        C126   1.400       .  A
C125        C130   1.398       .  A
C125        C364   1.433       .  S
C126        C127   1.399       .  A
C126        H131   1.085       .  S
C127        C128   1.405       .  A
C127        C360   1.441       .  S
C128        C129   1.404       .  A
C128        H132   1.084       .  S
C129        C130   1.398       .  A
C129        C362   1.440       .  S
C130        H133   1.085       .  S
C134        C135   1.398       .  A
C134        C139   1.400       .  A
C134        C375   1.433       .  S
C135        C136   1.398       .  A
C135        H140   1.085       .  S
C136        C137   1.404       .  A
C136        C361   1.440       .  S
C137        C138   1.405       .  A
C137        H141   1.084       .  S
C138        C139   1.399       .  A
C138        C357   1.441       .  S
C139        H142   1.085       .  S
C143        C960   1.401       .  A
C143        C964   1.403       .  A
C143        C356   1.441       .  S
C144        C145   1.399       .  A
C144        C959   1.401       .  A
C144        H965   1.085       .  S
C145        C146   1.401       .  A
C145        C351   1.439       .  S
C146        C147   1.402       .  A
C146        H150   1.085       .  S
C147        C148   1.404       .  A
C147        C353   1.442       .  S
C148        C959   1.403       .  A
C148        H967   1.084       .  S
H149        C960   1.085       .  S
H151        C964   1.084       .  S
C152        C153   1.403       .  A
C152        C157   1.400       .  A
C152        C374   1.440       .  S
C153        C154   1.404       .  A
C153        H158   1.084       .  S
C154        C155   1.402       .  A
C154        C354   1.442       .  S
C155        C156   1.401       .  A
C155        H159   1.085       .  S
C156        C157   1.399       .  A
C156        C350   1.439       .  S
C157        H160   1.085       .  S
O161       Ni167   1.932       .  S
O161        C182   1.272       .  A
O162      Ni1001   1.902   1_455  S
O162        C171   1.268       .  A
O163       Ni167   1.905       .  S
O163       Ni179   1.911       .  S
O163       Ni593   1.899       .  S
O163        H186   0.966       .  S
C164        C352   1.433       .  S
C164        O181   1.273       .  A
C164        O989   1.276       .  A
O165       Ni592   1.933   1_545  S
O165        C171   1.272       .  A
O166       Ni184   1.908       .  S
O166        C168   1.268       .  A
Ni167       O172   1.908       .  S
Ni167       O578   1.927       .  S
C168        C366   1.451       .  S
C168        O178   1.279       .  A
O169       Ni185   1.913       .  S
O169        C175   1.273       .  A
O170       Ni575   1.927   1_545  S
O170        C175   1.276       .  A
C171        C359   1.435       .  S
O172        C582   1.268       .  A
O173       Ni184   1.928   1_655  S
O173        C980   1.276       .  A
C174        C367   1.451   1_545  S
C174        O180   1.279       .  A
C174        O580   1.268   1_545  A
C175        C349   1.433       .  S
H176        O177   0.966       .  S
O177       Ni179   1.899       .  S
O177       Ni593   1.911       .  S
O177      Ni1000   1.905       .  S
O178       Ni995   1.955   1_455  S
Ni179       O183   1.903       .  S
Ni179       O181   1.913       .  S
Ni179       O994   1.955       .  S
O180       Ni185   1.954       .  S
C182        C358   1.435       .  S
C182        O183   1.268       .  A
Ni184       O573   1.933       .  S
Ni184       O993   1.905   1_455  S
Ni185       O978   1.902       .  S
Ni185       O571   1.899   1_545  S
Ni185       O585   1.911   1_545  S
C187        C188   1.403       .  A
C187        C192   1.400       .  A
C187        C347   1.441       .  S
C188        C189   1.405       .  A
C188        H193   1.084       .  S
C189        C190   1.405       .  A
C189        C345   1.446       .  S
C190        C191   1.405       .  A
C190        H194   1.084       .  S
C191        C192   1.399       .  A
C191        C343   1.444       .  S
C192        H195   1.085       .  S
C196        C197   1.403       .  A
C196        C609   1.400       .  A
C196        C342   1.440       .  S
C197        C198   1.404       .  A
C197        H202   1.084       .  S
C198        C199   1.404       .  A
C198        C346   1.446       .  S
C199        C608   1.404       .  A
C199        H203   1.084       .  S
C200        C201   1.398       .  A
C200        C607   1.404   1_545  A
C200        C339   1.442       .  S
C201        C604   1.400   1_545  A
C201        H204   1.085       .  S
C205        C614   1.403   1_545  A
C205        C618   1.404   1_545  A
C205        C334   1.443       .  S
C206        C207   1.404       .  A
C206        C613   1.403       .  A
C206        H619   1.084       .  S
C207        C208   1.401       .  A
C207        C338   1.439       .  S
C208        C209   1.399       .  A
C208        H212   1.085       .  S
C209        C210   1.401       .  A
C209        C335   1.441       .  S
C210        C613   1.404       .  A
C210        H621   1.085       .  S
H211        C614   1.084   1_545  S
H213        C618   1.085   1_545  S
C214        C215   1.403       .  A
C214        C219   1.401       .  A
C214        C329   1.441       .  S
C215       C1032   1.401       .  A
C215        H220   1.085       .  S
C216        C217   1.400       .  A
C216       C1031   1.401       .  A
C216        C336   1.441       .  S
C217       C1034   1.401       .  A
C217        H221   1.085       .  S
C218        C219   1.403       .  A
C218       C1033   1.401       .  A
C218        C331   1.438       .  S
C219        H222   1.085       .  S
C223        C224   1.399       .  A
C223        C228   1.404       .  A
C223        C324   1.441       .  S
C224        C225   1.399       .  A
C224        H229   1.085       .  S
C225        C226   1.404       .  A
C225        C327   1.441       .  S
C226        C227   1.405       .  A
C226        H230   1.084       .  S
C227        C228   1.404       .  A
C227        C325   1.446       .  S
C228        H231   1.084       .  S
C232        C233   1.401       .  A
C232       C1053   1.400       .  A
C232        C320   1.441       .  S
C233       C1050   1.403       .  A
C233        H238   1.085       .  S
C234        C235   1.406       .  A
C234       C1049   1.403       .  A
C234        C326   1.445       .  S
C235        C236   1.405       .  A
C235        H239   1.084       .  S
C236        C237   1.401       .  A
C236        C322   1.444       .  S
C237       C1048   1.400   1_455  A
C237       H1056   1.085       .  S
H240       C1053   1.085       .  S
O241       Ni247   1.933       .  S
O241        C262   1.270       .  A
O242       Ni265   1.904       .  S
O242        C251   1.267       .  A
O243       Ni247   1.909       .  S
O243       Ni265   1.902       .  S
O243       Ni259   1.907       .  S
O243        H266   0.966       .  S
C244        C323   1.435       .  S
C244        O261   1.267       .  A
C244        O253   1.273       .  A
O245       Ni264   1.931       .  S
O245        C251   1.270       .  A
O246       Ni264   1.893       .  S
O246        C248   1.266       .  A
Ni247       O250   1.923       .  S
Ni247       O252   1.899       .  S
C248        C333   1.436       .  S
C248        O258   1.278       .  A
O249       Ni265   1.919       .  S
O249        C255   1.274       .  A
O250        C255   1.275       .  A
C251        C340   1.436       .  S
O252        C254   1.266       .  A
O253       Ni264   1.932       .  S
C254        C330   1.434       .  S
C254        O260   1.273       .  A
C255        C319   1.435       .  S
H256        O257   0.966       .  S
O257       Ni265   1.921       .  S
O257       Ni259   1.912       .  S
O257       Ni264   1.914       .  S
O258       Ni259   1.950       .  S
Ni259       O263   1.905       .  S
Ni259       O261   1.904       .  S
O260       Ni265   1.936       .  S
C262        C344   1.438       .  S
C262        O263   1.267       .  A
O267       Ni273   1.929   1_556  S
O267        C288   1.269       .  A
O268       Ni699   1.898   1_545  S
O268        C277   1.264       .  A
O269       Ni273   1.929   1_556  S
O269       Ni291   1.910   1_556  S
O269       Ni285   1.916       .  S
O269        H292   0.967       .  S
C270        C328   1.437       .  S
C270        O287   1.268       .  A
C270        O279   1.271       .  A
O271       Ni290   1.929   1_554  S
O271        C277   1.269       .  A
O272       Ni290   1.907       .  S
O272        C274   1.268       .  A
Ni273       O276   1.935       .  S
Ni273      O1094   1.906       .  S
C274        C749   1.434   1_545  S
C274        O692   1.273   1_545  A
O275       Ni291   1.906       .  S
O275        C281   1.267       .  A
O276        C281   1.271       .  A
C277        C398   1.433       .  S
O278      Ni1089   1.906   1_455  S
O278        C280   1.268       .  A
O279      Ni1106   1.936   1_455  S
C280        C407   1.434       .  S
C280        O286   1.273       .  A
C281        C382   1.437       .  S
H282       O1099   0.967   1_454  S
O283       Ni290   1.929       .  S
O283       Ni699   1.916   1_546  S
O283       Ni693   1.910   1_545  S
O283       H1098   0.967   1_556  S
O284       Ni285   1.937       .  S
O284        C682   1.273       .  A
Ni285       O289   1.898       .  S
Ni285      O1511   1.906       .  S
Ni285       O691   1.910       .  S
O286      Ni1107   1.937   1_455  S
O287      Ni1509   1.906   1_445  S
C288        C332   1.433       .  S
C288        O289   1.264       .  A
Ni290      O1095   1.936       .  S
Ni291       O676   1.898       .  S
Ni291      O1102   1.937       .  S
Ni291       O691   1.916   1_554  S
O293       Ni299   1.934       .  S
O293        C314   1.270       .  A
O294       Ni317   1.894       .  S
O294        C303   1.263       .  A
O295       Ni299   1.931       .  S
O295       Ni317   1.912       .  S
O295       Ni311   1.909       .  S
O295        H318   0.968       .  S
C296        C363   1.427       .  S
C296        O313   1.263       .  A
C296        O305   1.272       .  A
O297       Ni316   1.939       .  S
O297        C303   1.272       .  A
O298       Ni316   1.912       .  S
O298        C300   1.271       .  A
Ni299       O302   1.936       .  S
Ni299       O304   1.909       .  S
C300        C371   1.444       .  S
C300        O310   1.276       .  A
O301       Ni317   1.901       .  S
O301        C307   1.266       .  A
O302        C307   1.272       .  A
C303        C348   1.436       .  S
O304        C306   1.268       .  A
O305       Ni316   1.938       .  S
C306        C321   1.439       .  S
C306        O312   1.272       .  A
C307        C337   1.435       .  S
H308        O309   0.966       .  S
O309       Ni317   1.912       .  S
O309       Ni311   1.908       .  S
O309       Ni316   1.929       .  S
O310       Ni311   1.948       .  S
Ni311       O315   1.900       .  S
Ni311       O313   1.891       .  S
O312       Ni317   1.940       .  S
C314        C355   1.436       .  S
C314        O315   1.263       .  A
C319        C320   1.206       .  T
C321        C322   1.208       .  T
C323        C324   1.206       .  T
C325        C326   1.209       .  T
C327        C328   1.207       .  T
C329        C330   1.206       .  T
C331        C332   1.205       .  T
C333        C334   1.208       .  T
C335        C336   1.207       .  T
C337        C338   1.206       .  T
C339        C340   1.207       .  T
C341        C682   1.434       .  S
C341        C342   1.206       .  T
C343        C344   1.208       .  T
C345        C346   1.210       .  T
C347        C348   1.207       .  T
C349        C350   1.205       .  T
C351        C352   1.205       .  T
C353        C354   1.207       .  T
C355        C356   1.207       .  T
C357        C358   1.206       .  T
C359        C360   1.206       .  T
C361        C362   1.206       .  T
C363        C364   1.202       .  T
C365        C366   1.216       .  T
C367        C368   1.216       .  T
C369        C517   1.456       .  S
C369        C370   1.216       .  T
C371        C372   1.212       .  T
C373        C374   1.206       .  T
C375        C376   1.201       .  T
C377        C378   1.212       .  T
C379        C380   1.206       .  T
C381        C382   1.207       .  T
C383       C1200   1.206   1_455  T
C384       C1199   1.206       .  T
C385        C386   1.209       .  T
C387        C388   1.208       .  T
C389        C390   1.207       .  T
C391        C392   1.205       .  T
C393        C394   1.206   1_455  T
C394        C835   1.441       .  S
C395        C396   1.207       .  T
C397        C398   1.205       .  T
C399        C400   1.208       .  T
C401        C402   1.207       .  T
C403        C404   1.207       .  T
C405        C406   1.210       .  T
C407        C408   1.206       .  T
C409        C414   1.400       .  A
C409        C816   1.440       .  S
C410        C411   1.404       .  A
C410        H415   1.084       .  S
C411        C813   1.446       .  S
C412        C413   1.404       .  A
C412        H416   1.084       .  S
C413        C414   1.398       .  A
C413        C812   1.442       .  S
C414        H417   1.085       .  S
C418        C419   1.403       .  A
C418        C423   1.400       .  A
C418        C809   1.441       .  S
C419        C420   1.404       .  A
C419        H424   1.084       .  S
C420        C421   1.405       .  A
C420        C814   1.446       .  S
C421        C422   1.405       .  A
C421        H425   1.084       .  S
C422        C423   1.399       .  A
C422        C807   1.444       .  S
C423        H426   1.085       .  S
C427        C428   1.403       .  A
C427        C432   1.400       .  A
C427       C1618   1.441       .  S
C428        C429   1.401       .  A
C428        H433   1.085       .  S
C429        C430   1.400       .  A
C429        C804   1.441       .  S
C430        C431   1.401       .  A
C430        H434   1.085       .  S
C431        C432   1.403       .  A
C431        C805   1.438       .  S
C432       H1251   1.085       .  S
H435       C1248   1.085       .  S
C436        C437   1.402       .  A
C436        C441   1.403       .  A
C436        C798   1.443       .  S
C437        H442   1.084       .  S
C438        C439   1.401       .  A
C438        C799   1.439       .  S
C439        C440   1.399       .  A
C439        H443   1.085       .  S
C440        C803   1.441       .  S
C441        H444   1.085       .  S
C445        C446   1.401       .  A
C445        C450   1.400       .  A
C445        C792   1.441       .  S
C446        C447   1.403       .  A
C446        H451   1.085       .  S
C447        C448   1.406       .  A
C447        C793   1.445       .  S
C448        C449   1.405       .  A
C448        H452   1.084       .  S
C449        C450   1.401       .  A
C449        C796   1.443       .  S
C450        H453   1.085       .  S
C454        C455   1.404       .  A
C454        C459   1.399       .  A
C454        C787   1.440       .  S
C455        C456   1.404       .  A
C455        H460   1.084       .  S
C456        C457   1.405       .  A
C456        C794   1.446       .  S
C457        C458   1.404       .  A
C457        H461   1.084       .  S
C458        C459   1.399       .  A
C458        C789   1.441       .  S
C459        H462   1.085       .  S
O463       Ni469   1.931       .  S
O463        C484   1.270       .  A
O464       Ni487   1.906       .  S
O464        C473   1.267       .  A
O465       Ni469   1.914       .  S
O465       Ni487   1.912       .  S
O465       Ni481   1.920       .  S
O465        H488   0.966       .  S
C466        C791   1.435       .  S
C466        O483   1.274       .  A
C466        O475   1.275       .  A
O467       Ni486   1.932       .  S
O467        C473   1.270       .  A
O468       Ni486   1.898       .  S
O468        C470   1.266       .  A
Ni469       O472   1.932       .  S
Ni469       O474   1.892       .  S
C470        C801   1.434       .  S
C470        O480   1.273       .  A
O471       Ni487   1.903       .  S
O471        C477   1.267       .  A
O472        C477   1.273       .  A
C473        C808   1.438       .  S
O474        C476   1.266       .  A
O475       Ni486   1.923       .  S
C476        C797   1.435       .  S
C476        O482   1.278       .  A
C477        C788   1.434       .  S
H478        O479   0.966       .  S
O479       Ni487   1.907       .  S
O479       Ni481   1.902       .  S
O479       Ni486   1.908       .  S
O480       Ni481   1.936       .  S
Ni481       O485   1.904       .  S
Ni481       O483   1.919       .  S
O482       Ni487   1.949       .  S
C484        C811   1.436       .  S
C484        O485   1.267       .  A
O489       Ni495   1.938       .  S
O489        C510   1.272       .  A
O490       Ni513   1.899       .  S
O490        C499   1.263       .  A
O491       Ni495   1.929       .  S
O491       Ni513   1.907       .  S
O491       Ni507   1.912       .  S
O491        H514   0.966       .  S
C492        C800   1.434       .  S
C492        O509   1.266       .  A
C492        O501   1.272       .  A
O493       Ni512   1.933       .  S
O493        C499   1.270       .  A
O494       Ni512   1.908       .  S
O494        C496   1.268       .  A
Ni495       O498   1.938       .  S
Ni495       O500   1.912       .  S
C496        C795   1.439       .  S
C496        O506   1.272       .  A
O497       Ni513   1.890       .  S
O497        C503   1.263       .  A
O498        C503   1.272       .  A
C499        C781   1.436       .  S
O500        C502   1.271       .  A
O501       Ni512   1.935       .  S
C502        C786   1.444       .  S
C502        O508   1.276       .  A
C503        C784   1.427       .  S
H504        O505   0.968       .  S
O505       Ni513   1.909       .  S
O505       Ni507   1.912       .  S
O505       Ni512   1.931       .  S
O506       Ni507   1.940       .  S
Ni507       O511   1.894       .  S
Ni507       O509   1.900       .  S
O508       Ni513   1.948       .  S
C510        C810   1.436       .  S
C510        O511   1.263       .  A
C515        C516   1.410       .  A
C515        C776   1.457       .  S
C516        C517   1.410       .  A
C516        H521   1.084       .  S
C518        C519   1.405       .  A
C518        H522   1.084       .  S
C519        C520   1.406       .  A
C519        C780   1.450       .  S
C520        H523   1.084       .  S
C524        C525   1.411       .  A
C524        C529   1.405   1_565  A
C524        C773   1.457       .  S
C525        C526   1.410       .  A
C525        H530   1.084       .  S
C526        C527   1.405   1_565  A
C526        C778   1.456       .  S
C528        C785   1.450       .  S
C533        C534   1.400       .  A
C533        C538   1.398       .  A
C533        C772   1.433       .  S
C534        C535   1.399       .  A
C534        H539   1.085       .  S
C535        C536   1.405       .  A
C535        C768   1.441       .  S
C536        C537   1.404       .  A
C536        H540   1.084       .  S
C537        C538   1.398       .  A
C537        C770   1.440       .  S
C538        H541   1.085       .  S
C542        C543   1.398       .  A
C542        C547   1.400       .  A
C542        C783   1.433       .  S
C543        C544   1.398       .  A
C543        H548   1.085       .  S
C544        C545   1.404       .  A
C544        C769   1.440       .  S
C545        C546   1.405       .  A
C545        H549   1.084       .  S
C546        C547   1.399       .  A
C546        C765   1.441       .  S
C547        H550   1.085       .  S
C551       C1368   1.401       .  A
C551       C1372   1.403       .  A
C551        C764   1.441       .  S
C552       C1367   1.401       .  A
C552        C553   1.399       .  A
C552       H1373   1.085       .  S
C553        C554   1.401       .  A
C553        C759   1.439       .  S
C554        C555   1.402       .  A
C554        H558   1.085       .  S
C555        C556   1.404       .  A
C555        C761   1.442       .  S
C556       C1367   1.403       .  A
C556       H1375   1.084       .  S
H557       C1368   1.085       .  S
H559       C1372   1.084       .  S
C560        C561   1.403       .  A
C560        C565   1.400       .  A
C560        C782   1.440       .  S
C561        C562   1.404       .  A
C561        H566   1.084       .  S
C562        C563   1.402       .  A
C562        C762   1.442       .  S
C563        C564   1.401       .  A
C563        H567   1.085       .  S
C564        C565   1.399       .  A
C564        C758   1.439       .  S
C565        H568   1.085       .  S
O569       Ni575   1.932       .  S
O569        C590   1.272       .  A
O570      Ni1409   1.902   1_455  S
O570        C579   1.268       .  A
O571       Ni575   1.905       .  S
O571       Ni587   1.911       .  S
O571        H594   0.966   1_565  S
C572        C760   1.433       .  S
C572        O589   1.273       .  A
C572       O1397   1.276       .  A
O573        C579   1.272       .  A
O574       Ni592   1.908       .  S
O574        C576   1.268       .  A
Ni575       O580   1.908       .  S
C576        C774   1.451       .  S
C576        O586   1.279       .  A
O577       Ni593   1.913       .  S
O577        C583   1.273       .  A
O578        C583   1.276       .  A
C579        C767   1.435       .  S
O581       Ni592   1.928   1_655  S
O581       C1388   1.276       .  A
C582        C775   1.451       .  S
C582        O588   1.279       .  A
C583        C757   1.433       .  S
H584        O585   0.966       .  S
O585       Ni587   1.899       .  S
O585      Ni1408   1.905       .  S
O586      Ni1403   1.955   1_455  S
Ni587      O1402   1.955       .  S
Ni587       O591   1.903       .  S
Ni587       O589   1.913       .  S
O588       Ni593   1.954       .  S
C590        C766   1.435       .  S
C590        O591   1.268       .  A
Ni592      O1401   1.905   1_455  S
Ni593      O1386   1.902       .  S
C595        C596   1.403       .  A
C595        C600   1.400       .  A
C595        C755   1.441       .  S
C596        C597   1.405       .  A
C596        H601   1.084       .  S
C597        C598   1.405       .  A
C597        C753   1.446       .  S
C598        C599   1.405       .  A
C598        H602   1.084       .  S
C599        C600   1.399       .  A
C599        C751   1.444       .  S
C600        H603   1.085       .  S
C604        C605   1.403       .  A
C604        C750   1.440       .  S
C605        C606   1.404       .  A
C605        H610   1.084       .  S
C606        C607   1.404       .  A
C606        C754   1.446       .  S
C607        H611   1.084   1_565  S
C608        C609   1.398       .  A
C608        C747   1.442       .  S
C609        H612   1.085       .  S
C613        C742   1.443       .  S
C614        C615   1.404       .  A
C615        C616   1.401       .  A
C615        C746   1.439       .  S
C616        C617   1.399       .  A
C616        H620   1.085       .  S
C617        C618   1.401       .  A
C617        C743   1.441       .  S
C622        C623   1.403       .  A
C622        C627   1.401       .  A
C622        C737   1.441       .  S
C623       C1440   1.401       .  A
C623        H628   1.085       .  S
C624       C1439   1.401       .  A
C624        C625   1.400       .  A
C624        C744   1.441       .  S
C625       C1442   1.401       .  A
C625        H629   1.085       .  S
C626       C1441   1.401       .  A
C626        C627   1.403       .  A
C626        C739   1.438       .  S
C627        H630   1.085       .  S
C631        C632   1.399       .  A
C631        C636   1.404       .  A
C631        C732   1.441       .  S
C632        C633   1.399       .  A
C632        H637   1.085       .  S
C633        C634   1.404       .  A
C633        C735   1.441       .  S
C634        C635   1.405       .  A
C634        H638   1.084       .  S
C635        C636   1.404       .  A
C635        C733   1.446       .  S
C636        H639   1.084       .  S
C640        C641   1.401       .  A
C640       C1461   1.400       .  A
C640        C728   1.441       .  S
C641       C1458   1.403       .  A
C641        H646   1.085       .  S
C642       C1457   1.403       .  A
C642        C643   1.406       .  A
C642        C734   1.445       .  S
C643        C644   1.405       .  A
C643        H647   1.084       .  S
C644        C645   1.401       .  A
C644        C730   1.444       .  S
C645       C1456   1.400   1_455  A
C645       H1464   1.085       .  S
H648       C1461   1.085       .  S
O649       Ni655   1.933       .  S
O649        C670   1.270       .  A
O650       Ni673   1.904       .  S
O650        C659   1.267       .  A
O651       Ni655   1.909       .  S
O651       Ni673   1.902       .  S
O651       Ni667   1.907       .  S
O651        H674   0.966       .  S
C652        C731   1.435       .  S
C652        O669   1.267       .  A
C652        O661   1.273       .  A
O653       Ni672   1.931       .  S
O653        C659   1.270       .  A
O654       Ni672   1.893       .  S
O654        C656   1.266       .  A
Ni655       O658   1.923       .  S
Ni655       O660   1.899       .  S
C656        C741   1.436       .  S
C656        O666   1.278       .  A
O657       Ni673   1.919       .  S
O657        C663   1.274       .  A
O658        C663   1.275       .  A
C659        C748   1.436       .  S
O660        C662   1.266       .  A
O661       Ni672   1.932       .  S
C662        C738   1.434       .  S
C662        O668   1.273       .  A
C663        C727   1.435       .  S
H664        O665   0.966       .  S
O665       Ni673   1.921       .  S
O665       Ni667   1.912       .  S
O665       Ni672   1.914       .  S
O666       Ni667   1.950       .  S
Ni667       O671   1.905       .  S
Ni667       O669   1.904       .  S
O668       Ni673   1.936       .  S
C670        C752   1.438       .  S
C670        O671   1.267       .  A
O675       Ni681   1.929   1_556  S
O675        C696   1.269       .  A
O676        C685   1.264       .  A
O677       Ni681   1.929   1_556  S
O677       Ni699   1.910   1_556  S
O677       Ni693   1.916       .  S
O677        H700   0.967       .  S
C678        C736   1.437       .  S
C678        O695   1.268       .  A
C678        O687   1.271       .  A
O679       Ni698   1.929   1_554  S
O679        C685   1.269       .  A
O680       Ni698   1.907       .  S
O680        C682   1.268       .  A
Ni681       O684   1.935       .  S
Ni681      O1502   1.906       .  S
O683       Ni699   1.906       .  S
O683        C689   1.267       .  A
O684        C689   1.271       .  A
C685        C806   1.433       .  S
O686      Ni1497   1.906   1_455  S
O686        C688   1.268       .  A
O687      Ni1514   1.936   1_455  S
C688        C815   1.434       .  S
C688        O694   1.273       .  A
C689        C790   1.437       .  S
H690       O1507   0.967   1_454  S
O691       Ni698   1.929       .  S
O691       H1506   0.967   1_556  S
O692       Ni693   1.937       .  S
Ni693       O697   1.898       .  S
Ni693      O1103   1.906   1_565  S
O694      Ni1515   1.937   1_455  S
O695      Ni1101   1.906   1_455  S
C696        C740   1.433       .  S
C696        O697   1.264       .  A
Ni698      O1503   1.936       .  S
Ni699      O1510   1.937       .  S
O701       Ni707   1.934       .  S
O701        C722   1.270       .  A
O702       Ni725   1.894       .  S
O702        C711   1.263       .  A
O703       Ni707   1.931       .  S
O703       Ni725   1.912       .  S
O703       Ni719   1.909       .  S
O703        H726   0.968       .  S
C704        C771   1.427       .  S
C704        O721   1.263       .  A
C704        O713   1.272       .  A
O705       Ni724   1.939       .  S
O705        C711   1.272       .  A
O706       Ni724   1.912       .  S
O706        C708   1.271       .  A
Ni707       O710   1.936       .  S
Ni707       O712   1.909       .  S
C708        C779   1.444       .  S
C708        O718   1.276       .  A
O709       Ni725   1.901       .  S
O709        C715   1.266       .  A
O710        C715   1.272       .  A
C711        C756   1.436       .  S
O712        C714   1.268       .  A
O713       Ni724   1.938       .  S
C714        C729   1.439       .  S
C714        O720   1.272       .  A
C715        C745   1.435       .  S
H716        O717   0.966       .  S
O717       Ni725   1.912       .  S
O717       Ni719   1.908       .  S
O717       Ni724   1.929       .  S
O718       Ni719   1.948       .  S
Ni719       O723   1.900       .  S
Ni719       O721   1.891       .  S
O720       Ni725   1.940       .  S
C722        C763   1.436       .  S
C722        O723   1.263       .  A
C727        C728   1.206       .  T
C729        C730   1.208       .  T
C731        C732   1.206       .  T
C733        C734   1.209       .  T
C735        C736   1.207       .  T
C737        C738   1.206       .  T
C739        C740   1.205       .  T
C741        C742   1.208       .  T
C743        C744   1.207       .  T
C745        C746   1.206       .  T
C747        C748   1.207       .  T
C749        C750   1.206       .  T
C751        C752   1.208       .  T
C753        C754   1.210       .  T
C755        C756   1.207       .  T
C757        C758   1.205       .  T
C759        C760   1.205       .  T
C761        C762   1.207       .  T
C763        C764   1.207       .  T
C765        C766   1.206       .  T
C767        C768   1.206       .  T
C769        C770   1.206       .  T
C771        C772   1.202       .  T
C773        C774   1.216       .  T
C775        C776   1.216       .  T
C777        C778   1.216       .  T
C779        C780   1.212       .  T
C781        C782   1.206       .  T
C783        C784   1.201       .  T
C785        C786   1.212       .  T
C787        C788   1.206       .  T
C789        C790   1.207       .  T
C791       C1608   1.206   1_455  T
C792       C1607   1.206       .  T
C793        C794   1.209       .  T
C795        C796   1.208       .  T
C797        C798   1.207       .  T
C799        C800   1.205       .  T
C801        C802   1.206   1_455  T
C802       C1243   1.441       .  S
C803        C804   1.207       .  T
C805        C806   1.205       .  T
C807        C808   1.208       .  T
C809        C810   1.207       .  T
C811        C812   1.207       .  T
C813        C814   1.210       .  T
C815        C816   1.206       .  T
C817       C1226   1.403       .  A
C817        C822   1.400       .  A
C817       C1224   1.440       .  S
C818       C1225   1.403   1_545  A
C818        C819   1.404       .  A
C818        H823   1.084       .  S
C819       C1228   1.405   1_545  A
C819       C1221   1.446       .  S
C820       C1227   1.405       .  A
C820        C821   1.404       .  A
C820        H824   1.084       .  S
C821        C822   1.398       .  A
C821       C1220   1.442       .  S
C822        H825   1.085       .  S
C826        C827   1.403       .  A
C826        C831   1.400       .  A
C826       C1217   1.441       .  S
C827        C828   1.404       .  A
C827        H832   1.084       .  S
C828        C829   1.405       .  A
C828       C1222   1.446       .  S
C829        C830   1.405       .  A
C829        H833   1.084       .  S
C830        C831   1.399       .  A
C830       C1215   1.444       .  S
C831        H834   1.085       .  S
C835        C836   1.403       .  A
C835        C840   1.400       .  A
C836        C837   1.401       .  A
C836        H841   1.085       .  S
C837        C838   1.400       .  A
C837       C1212   1.441       .  S
C838        C839   1.401       .  A
C838        H842   1.085       .  S
C839        C840   1.403       .  A
C839       C1213   1.438       .  S
C844        C845   1.402       .  A
C844        C849   1.403       .  A
C844       C1206   1.443       .  S
C845       C1254   1.404       .  A
C845        H850   1.084       .  S
C846       C1253   1.404   1_545  A
C846        C847   1.401       .  A
C846       C1207   1.439       .  S
C847        C848   1.399       .  A
C847        H851   1.085       .  S
C848       C1257   1.400   1_545  A
C848       C1211   1.441       .  S
C849       C1256   1.400       .  A
C849        H852   1.085       .  S
C853        C854   1.401       .  A
C853        C858   1.400       .  A
C853       C1200   1.441       .  S
C854        C855   1.403       .  A
C854        H859   1.085       .  S
C855        C856   1.406       .  A
C855       C1201   1.445       .  S
C856        C857   1.405       .  A
C856        H860   1.084       .  S
C857        C858   1.401       .  A
C857       C1204   1.443       .  S
C858        H861   1.085       .  S
C862        C863   1.404       .  A
C862        C867   1.399       .  A
C862       C1195   1.440       .  S
C863        C864   1.404       .  A
C863        H868   1.084       .  S
C864        C865   1.405       .  A
C864       C1202   1.446       .  S
C865        C866   1.404       .  A
C865        H869   1.084       .  S
C866        C867   1.399       .  A
C866       C1197   1.441       .  S
C867        H870   1.085       .  S
O871       Ni877   1.931       .  S
O871        C892   1.270       .  A
O872       Ni895   1.906       .  S
O872        C881   1.267       .  A
O873       Ni877   1.914       .  S
O873       Ni895   1.912       .  S
O873       Ni889   1.920       .  S
O873        H896   0.966       .  S
C874       C1199   1.435       .  S
C874        O891   1.274       .  A
C874        O883   1.275       .  A
O875       Ni894   1.932       .  S
O875        C881   1.270       .  A
O876       Ni894   1.898       .  S
O876        C878   1.266       .  A
Ni877       O880   1.932       .  S
Ni877       O882   1.892       .  S
C878       C1209   1.434       .  S
C878        O888   1.273       .  A
O879       Ni895   1.903       .  S
O879        C885   1.267       .  A
O880        C885   1.273       .  A
C881       C1216   1.438       .  S
O882        C884   1.266       .  A
O883       Ni894   1.923       .  S
C884       C1205   1.435       .  S
C884        O890   1.278       .  A
C885       C1196   1.434       .  S
H886        O887   0.966       .  S
O887       Ni895   1.907       .  S
O887       Ni889   1.902       .  S
O887       Ni894   1.908       .  S
O888       Ni889   1.936       .  S
Ni889       O893   1.904       .  S
Ni889       O891   1.919       .  S
O890       Ni895   1.949       .  S
C892       C1219   1.436       .  S
C892        O893   1.267       .  A
O897       Ni903   1.938       .  S
O897        C918   1.272       .  A
O898       Ni921   1.899       .  S
O898        C907   1.263       .  A
O899       Ni903   1.929       .  S
O899       Ni921   1.907       .  S
O899       Ni915   1.912       .  S
O899        H922   0.966       .  S
C900       C1208   1.434       .  S
C900        O917   1.266       .  A
C900        O909   1.272       .  A
O901       Ni920   1.933       .  S
O901        C907   1.270       .  A
O902       Ni920   1.908       .  S
O902        C904   1.268       .  A
Ni903       O906   1.938       .  S
Ni903       O908   1.912       .  S
C904       C1203   1.439       .  S
C904        O914   1.272       .  A
O905       Ni921   1.890       .  S
O905        C911   1.263       .  A
O906        C911   1.272       .  A
C907       C1189   1.436       .  S
O908        C910   1.271       .  A
O909       Ni920   1.935       .  S
C910       C1194   1.444       .  S
C910        O916   1.276       .  A
C911       C1192   1.427       .  S
H912        O913   0.968       .  S
O913       Ni921   1.909       .  S
O913       Ni915   1.912       .  S
O913       Ni920   1.931       .  S
O914       Ni915   1.940       .  S
Ni915       O919   1.894       .  S
Ni915       O917   1.900       .  S
O916       Ni921   1.948       .  S
C918       C1218   1.436       .  S
C918        O919   1.263       .  A
C923        C924   1.410       .  A
C923       C1336   1.405       .  A
C923       C1184   1.457       .  S
C924        C925   1.410       .  A
C924        H929   1.084   1_565  S
C925       C1334   1.405       .  A
C925       C1593   1.456       .  S
C926       C1333   1.405       .  A
C926        C927   1.405       .  A
C926        H930   1.084       .  S
C927        C928   1.406       .  A
C927       C1188   1.450       .  S
C928       C1331   1.405       .  A
C928        H931   1.084       .  S
C932        C933   1.411       .  A
C932        C937   1.405       .  A
C932       C1181   1.457       .  S
C933        C934   1.410       .  A
C933        H938   1.084       .  S
C934        C935   1.405       .  A
C934       C1186   1.456       .  S
C935       C1344   1.405       .  A
C935       H1347   1.085       .  S
C936       C1343   1.405       .  A
C936       C1345   1.406       .  A
C936       C1193   1.450       .  S
C937       C1344   1.406       .  A
C937       H1348   1.084       .  S
H939       C1343   1.085       .  S
H940       C1345   1.084       .  S
C941        C942   1.400       .  A
C941        C946   1.398       .  A
C941       C1180   1.433       .  S
C942        C943   1.399       .  A
C942        H947   1.085       .  S
C943        C944   1.405       .  A
C943       C1176   1.441       .  S
C944        C945   1.404       .  A
C944        H948   1.084       .  S
C945        C946   1.398       .  A
C945       C1178   1.440       .  S
C946        H949   1.085       .  S
C950        C951   1.398       .  A
C950        C955   1.400       .  A
C950       C1191   1.433       .  S
C951        C952   1.398       .  A
C951        H956   1.085       .  S
C952        C953   1.404       .  A
C952       C1177   1.440       .  S
C953        C954   1.405       .  A
C953        H957   1.084       .  S
C954        C955   1.399       .  A
C954       C1173   1.441       .  S
C955        H958   1.085       .  S
C959       C1172   1.441       .  S
C960        C961   1.399   1_455  A
C961        C962   1.401       .  A
C961       C1167   1.439       .  S
C962        C963   1.402       .  A
C962        H966   1.085       .  S
C963        C964   1.404   1_655  A
C963       C1169   1.442       .  S
C968        C969   1.403       .  A
C968        C973   1.400       .  A
C968       C1190   1.440       .  S
C969        C970   1.404       .  A
C969        H974   1.084       .  S
C970        C971   1.402       .  A
C970       C1170   1.442       .  S
C971        C972   1.401       .  A
C971        H975   1.085       .  S
C972        C973   1.399       .  A
C972       C1166   1.439       .  S
C973        H976   1.085       .  S
O977       Ni983   1.932       .  S
O977        C998   1.272       .  A
O978        C987   1.268       .  A
O979       Ni983   1.905       .  S
O979      Ni1409   1.899       .  S
O979       Ni995   1.911       .  S
O979       H1002   0.966       .  S
C980       C1168   1.433       .  S
C980        O997   1.273       .  A
O981      Ni1408   1.933   1_545  S
O981        C987   1.272       .  A
O982      Ni1000   1.908       .  S
O982        C984   1.268       .  A
Ni983      O1394   1.927       .  S
Ni983       O988   1.908       .  S
C984       C1182   1.451       .  S
C984        O994   1.279       .  A
O985      Ni1001   1.913       .  S
O985        C991   1.273       .  A
O986      Ni1391   1.927   1_545  S
O986        C991   1.276       .  A
C987       C1175   1.435       .  S
O988       C1398   1.268       .  A
O989      Ni1000   1.928       .  S
C990       C1183   1.451   1_545  S
C990       O1396   1.268   1_545  A
C990        O996   1.279       .  A
C991       C1165   1.433       .  S
H992        O993   0.966       .  S
O993      Ni1409   1.911       .  S
O993       Ni995   1.899       .  S
Ni995       O999   1.903       .  S
Ni995       O997   1.913       .  S
O996      Ni1001   1.954       .  S
C998       C1174   1.435       .  S
C998        O999   1.268       .  A
Ni1000     O1389   1.933       .  S
Ni1001     O1387   1.899   1_545  S
Ni1001     O1401   1.911   1_545  S
C1003      C1004   1.403       .  A
C1003      C1008   1.400       .  A
C1003      C1163   1.441       .  S
C1004      C1005   1.405       .  A
C1004      H1009   1.084       .  S
C1005      C1006   1.405       .  A
C1005      C1161   1.446       .  S
C1006      C1007   1.405       .  A
C1006      H1010   1.084       .  S
C1007      C1008   1.399       .  A
C1007      C1159   1.444       .  S
C1008      H1011   1.085       .  S
C1012      C1013   1.403       .  A
C1012      C1425   1.400       .  A
C1012      C1158   1.440       .  S
C1013      C1014   1.404       .  A
C1013      H1018   1.084       .  S
C1014      C1015   1.404       .  A
C1014      C1162   1.446       .  S
C1015      C1424   1.404       .  A
C1015      H1019   1.084       .  S
C1016      C1423   1.404   1_545  A
C1016      C1017   1.398       .  A
C1016      C1155   1.442       .  S
C1017      C1420   1.400   1_545  A
C1017      H1020   1.085       .  S
C1021      C1430   1.403   1_545  A
C1021      C1434   1.404   1_545  A
C1021      C1150   1.443       .  S
C1022      C1429   1.403       .  A
C1022      C1023   1.404       .  A
C1022      H1435   1.084       .  S
C1023      C1024   1.401       .  A
C1023      C1154   1.439       .  S
C1024      C1025   1.399       .  A
C1024      H1028   1.085       .  S
C1025      C1026   1.401       .  A
C1025      C1151   1.441       .  S
C1026      C1429   1.404       .  A
C1026      H1437   1.085       .  S
H1027      C1430   1.084   1_545  S
H1029      C1434   1.085   1_545  S
C1030      C1031   1.403   1_655  A
C1030      C1035   1.401       .  A
C1030      C1145   1.441       .  S
C1031      H1036   1.085       .  S
C1032      C1033   1.400       .  A
C1032      C1152   1.441       .  S
C1033      H1037   1.085       .  S
C1034      C1035   1.403   1_455  A
C1034      C1147   1.438       .  S
C1035      H1038   1.085       .  S
C1039      C1040   1.399       .  A
C1039      C1044   1.404       .  A
C1039      C1140   1.441       .  S
C1040      C1041   1.399       .  A
C1040      H1045   1.085       .  S
C1041      C1042   1.404       .  A
C1041      C1143   1.441       .  S
C1042      C1043   1.405       .  A
C1042      H1046   1.084       .  S
C1043      C1044   1.404       .  A
C1043      C1141   1.446       .  S
C1044      H1047   1.084       .  S
C1048      C1049   1.401   1_655  A
C1048      C1136   1.441       .  S
C1049      H1054   1.085   1_455  S
C1050      C1051   1.406       .  A
C1050      C1142   1.445       .  S
C1051      C1052   1.405       .  A
C1051      H1055   1.084       .  S
C1052      C1053   1.401       .  A
C1052      C1138   1.444       .  S
O1057     Ni1063   1.933       .  S
O1057      C1078   1.270       .  A
O1058     Ni1081   1.904       .  S
O1058      C1067   1.267       .  A
O1059     Ni1063   1.909       .  S
O1059     Ni1081   1.902       .  S
O1059     Ni1075   1.907       .  S
O1059      H1082   0.966       .  S
C1060      C1139   1.435       .  S
C1060      O1077   1.267       .  A
C1060      O1069   1.273       .  A
O1061     Ni1080   1.931       .  S
O1061      C1067   1.270       .  A
O1062     Ni1080   1.893       .  S
O1062      C1064   1.266       .  A
Ni1063     O1066   1.923       .  S
Ni1063     O1068   1.899       .  S
C1064      C1149   1.436       .  S
C1064      O1074   1.278       .  A
O1065     Ni1081   1.919       .  S
O1065      C1071   1.274       .  A
O1066      C1071   1.275       .  A
C1067      C1156   1.436       .  S
O1068      C1070   1.266       .  A
O1069     Ni1080   1.932       .  S
C1070      C1146   1.434       .  S
C1070      O1076   1.273       .  A
C1071      C1135   1.435       .  S
H1072      O1073   0.966       .  S
O1073     Ni1081   1.921       .  S
O1073     Ni1075   1.912       .  S
O1073     Ni1080   1.914       .  S
O1074     Ni1075   1.950       .  S
Ni1075     O1079   1.905       .  S
Ni1075     O1077   1.904       .  S
O1076     Ni1081   1.936       .  S
C1078      C1160   1.438       .  S
C1078      O1079   1.267       .  A
O1083     Ni1089   1.929   1_456  S
O1083      C1104   1.269       .  A
O1084     Ni1515   1.898   1_545  S
O1084      C1093   1.264       .  A
O1085     Ni1089   1.929   1_556  S
O1085     Ni1107   1.910   1_556  S
O1085     Ni1101   1.916       .  S
O1085      H1108   0.967       .  S
C1086      C1144   1.437       .  S
C1086      O1103   1.268       .  A
C1086      O1095   1.271       .  A
O1087     Ni1106   1.929   1_554  S
O1087      C1093   1.269       .  A
O1088     Ni1106   1.907       .  S
O1088      C1090   1.268       .  A
Ni1089     O1092   1.935       .  S
C1090      C1565   1.434   1_545  S
C1090      O1508   1.273   1_545  A
O1091     Ni1107   1.906       .  S
O1091      C1097   1.267       .  A
O1092      C1097   1.271       .  A
C1093      C1214   1.433       .  S
O1094      C1096   1.268       .  A
C1096      C1223   1.434       .  S
C1096      O1102   1.273       .  A
C1097      C1198   1.437       .  S
O1099     Ni1515   1.916   1_546  S
O1099     Ni1509   1.910   1_545  S
O1099     Ni1106   1.929       .  S
O1100     Ni1101   1.937       .  S
O1100      C1498   1.273       .  A
Ni1101     O1105   1.898       .  S
Ni1101     O1507   1.910       .  S
C1104      C1148   1.433       .  S
C1104      O1105   1.264   1_455  A
Ni1107     O1492   1.898       .  S
Ni1107     O1507   1.916   1_554  S
O1109     Ni1115   1.934       .  S
O1109      C1130   1.270       .  A
O1110     Ni1133   1.894       .  S
O1110      C1119   1.263       .  A
O1111     Ni1115   1.931       .  S
O1111     Ni1133   1.912       .  S
O1111     Ni1127   1.909       .  S
O1111      H1134   0.968       .  S
C1112      C1179   1.427       .  S
C1112      O1129   1.263       .  A
C1112      O1121   1.272       .  A
O1113     Ni1132   1.939       .  S
O1113      C1119   1.272       .  A
O1114     Ni1132   1.912       .  S
O1114      C1116   1.271       .  A
Ni1115     O1118   1.936       .  S
Ni1115     O1120   1.909       .  S
C1116      C1187   1.444       .  S
C1116      O1126   1.276       .  A
O1117     Ni1133   1.901       .  S
O1117      C1123   1.266       .  A
O1118      C1123   1.272       .  A
C1119      C1164   1.436       .  S
O1120      C1122   1.268       .  A
O1121     Ni1132   1.938       .  S
C1122      C1137   1.439       .  S
C1122      O1128   1.272       .  A
C1123      C1153   1.435       .  S
H1124      O1125   0.966       .  S
O1125     Ni1133   1.912       .  S
O1125     Ni1127   1.908       .  S
O1125     Ni1132   1.929       .  S
O1126     Ni1127   1.948       .  S
Ni1127     O1131   1.900       .  S
Ni1127     O1129   1.891       .  S
O1128     Ni1133   1.940       .  S
C1130      C1171   1.436       .  S
C1130      O1131   1.263       .  A
C1135      C1136   1.206       .  T
C1137      C1138   1.208       .  T
C1139      C1140   1.206       .  T
C1141      C1142   1.209       .  T
C1143      C1144   1.207       .  T
C1145      C1146   1.206       .  T
C1147      C1148   1.205       .  T
C1149      C1150   1.208       .  T
C1151      C1152   1.207       .  T
C1153      C1154   1.206       .  T
C1155      C1156   1.207       .  T
C1157      C1498   1.434       .  S
C1157      C1158   1.206       .  T
C1159      C1160   1.208       .  T
C1161      C1162   1.210       .  T
C1163      C1164   1.207       .  T
C1165      C1166   1.205       .  T
C1167      C1168   1.205       .  T
C1169      C1170   1.207       .  T
C1171      C1172   1.207       .  T
C1173      C1174   1.206       .  T
C1175      C1176   1.206       .  T
C1177      C1178   1.206       .  T
C1179      C1180   1.202       .  T
C1181      C1182   1.216       .  T
C1183      C1184   1.216       .  T
C1185      C1333   1.456       .  S
C1185      C1186   1.216       .  T
C1187      C1188   1.212       .  T
C1189      C1190   1.206       .  T
C1191      C1192   1.201       .  T
C1193      C1194   1.212       .  T
C1195      C1196   1.206       .  T
C1197      C1198   1.207       .  T
C1201      C1202   1.209       .  T
C1203      C1204   1.208       .  T
C1205      C1206   1.207       .  T
C1207      C1208   1.205       .  T
C1209      C1210   1.206       .  T
C1211      C1212   1.207       .  T
C1213      C1214   1.205       .  T
C1215      C1216   1.208       .  T
C1217      C1218   1.207       .  T
C1219      C1220   1.207       .  T
C1221      C1222   1.210       .  T
C1223      C1224   1.206       .  T
C1225      C1230   1.400       .  A
C1225      C1632   1.440       .  S
C1226      C1227   1.404       .  A
C1226      H1231   1.084       .  S
C1227      C1629   1.446       .  S
C1228      C1229   1.404       .  A
C1228      H1232   1.084       .  S
C1229      C1230   1.398       .  A
C1229      C1628   1.442       .  S
C1230      H1233   1.085       .  S
C1234      C1235   1.403       .  A
C1234      C1239   1.400       .  A
C1234      C1625   1.441       .  S
C1235      C1236   1.404       .  A
C1235      H1240   1.084       .  S
C1236      C1237   1.405       .  A
C1236      C1630   1.446       .  S
C1237      C1238   1.405       .  A
C1237      H1241   1.084       .  S
C1238      C1239   1.399       .  A
C1238      C1623   1.444       .  S
C1239      H1242   1.085       .  S
C1243      C1244   1.403       .  A
C1243      C1248   1.400       .  A
C1244      C1245   1.401       .  A
C1244      H1249   1.085       .  S
C1245      C1246   1.400       .  A
C1245      C1620   1.441       .  S
C1246      C1247   1.401       .  A
C1246      H1250   1.085       .  S
C1247      C1248   1.403       .  A
C1247      C1621   1.438       .  S
C1252      C1253   1.402       .  A
C1252      C1257   1.403       .  A
C1252      C1614   1.443       .  S
C1253      H1258   1.084       .  S
C1254      C1255   1.401       .  A
C1254      C1615   1.439       .  S
C1255      C1256   1.399       .  A
C1255      H1259   1.085       .  S
C1256      C1619   1.441       .  S
C1257      H1260   1.085       .  S
C1261      C1262   1.401       .  A
C1261      C1266   1.400       .  A
C1261      C1608   1.441       .  S
C1262      C1263   1.403       .  A
C1262      H1267   1.085       .  S
C1263      C1264   1.406       .  A
C1263      C1609   1.445       .  S
C1264      C1265   1.405       .  A
C1264      H1268   1.084       .  S
C1265      C1266   1.401       .  A
C1265      C1612   1.443       .  S
C1266      H1269   1.085       .  S
C1270      C1271   1.404       .  A
C1270      C1275   1.399       .  A
C1270      C1603   1.440       .  S
C1271      C1272   1.404       .  A
C1271      H1276   1.084       .  S
C1272      C1273   1.405       .  A
C1272      C1610   1.446       .  S
C1273      C1274   1.404       .  A
C1273      H1277   1.084       .  S
C1274      C1275   1.399       .  A
C1274      C1605   1.441       .  S
C1275      H1278   1.085       .  S
O1279     Ni1285   1.931       .  S
O1279      C1300   1.270       .  A
O1280     Ni1303   1.906       .  S
O1280      C1289   1.267       .  A
O1281     Ni1285   1.914       .  S
O1281     Ni1303   1.912       .  S
O1281     Ni1297   1.920       .  S
O1281      H1304   0.966       .  S
C1282      C1607   1.435       .  S
C1282      O1299   1.274       .  A
C1282      O1291   1.275       .  A
O1283     Ni1302   1.932       .  S
O1283      C1289   1.270       .  A
O1284     Ni1302   1.899       .  S
O1284      C1286   1.266       .  A
Ni1285     O1288   1.932       .  S
Ni1285     O1290   1.892       .  S
C1286      C1617   1.434       .  S
C1286      O1296   1.273       .  A
O1287     Ni1303   1.903       .  S
O1287      C1293   1.267       .  A
O1288      C1293   1.273       .  A
C1289      C1624   1.438       .  S
O1290      C1292   1.266       .  A
O1291     Ni1302   1.923       .  S
C1292      C1613   1.435       .  S
C1292      O1298   1.278       .  A
C1293      C1604   1.434       .  S
H1294      O1295   0.966       .  S
O1295     Ni1303   1.907       .  S
O1295     Ni1297   1.902       .  S
O1295     Ni1302   1.908       .  S
O1296     Ni1297   1.936       .  S
Ni1297     O1301   1.904       .  S
Ni1297     O1299   1.919       .  S
O1298     Ni1303   1.949       .  S
C1300      C1627   1.436       .  S
C1300      O1301   1.267       .  A
O1305     Ni1311   1.938       .  S
O1305      C1326   1.272       .  A
O1306     Ni1329   1.899       .  S
O1306      C1315   1.263       .  A
O1307     Ni1311   1.929       .  S
O1307     Ni1329   1.907       .  S
O1307     Ni1323   1.912       .  S
O1307      H1330   0.966       .  S
C1308      C1616   1.434       .  S
C1308      O1325   1.266       .  A
C1308      O1317   1.272       .  A
O1309     Ni1328   1.933       .  S
O1309      C1315   1.270       .  A
O1310     Ni1328   1.908       .  S
O1310      C1312   1.268       .  A
Ni1311     O1314   1.938       .  S
Ni1311     O1316   1.912       .  S
C1312      C1611   1.439       .  S
C1312      O1322   1.272       .  A
O1313     Ni1329   1.890       .  S
O1313      C1319   1.263       .  A
O1314      C1319   1.272       .  A
C1315      C1597   1.436       .  S
O1316      C1318   1.271       .  A
O1317     Ni1328   1.935       .  S
C1318      C1602   1.444       .  S
C1318      O1324   1.276       .  A
C1319      C1600   1.427       .  S
H1320      O1321   0.968       .  S
O1321     Ni1329   1.909       .  S
O1321     Ni1323   1.912       .  S
O1321     Ni1328   1.931       .  S
O1322     Ni1323   1.940       .  S
Ni1323     O1327   1.894       .  S
Ni1323     O1325   1.900       .  S
O1324     Ni1329   1.948       .  S
C1326      C1626   1.436       .  S
C1326      O1327   1.263       .  A
C1331      C1332   1.410       .  A
C1331      C1592   1.457       .  S
C1332      C1333   1.410       .  A
C1332      H1337   1.084       .  S
C1334      C1335   1.405       .  A
C1334      H1338   1.084       .  S
C1335      C1336   1.406       .  A
C1335      C1596   1.450       .  S
C1336      H1339   1.084       .  S
C1340      C1341   1.411       .  A
C1340      C1345   1.405   1_565  A
C1340      C1589   1.457       .  S
C1341      C1342   1.410       .  A
C1341      H1346   1.084       .  S
C1342      C1343   1.405   1_565  A
C1342      C1594   1.456       .  S
C1344      C1601   1.450       .  S
C1349      C1350   1.400       .  A
C1349      C1354   1.398       .  A
C1349      C1588   1.433       .  S
C1350      C1351   1.399       .  A
C1350      H1355   1.085       .  S
C1351      C1352   1.405       .  A
C1351      C1584   1.441       .  S
C1352      C1353   1.404       .  A
C1352      H1356   1.084       .  S
C1353      C1354   1.398       .  A
C1353      C1586   1.440       .  S
C1354      H1357   1.085       .  S
C1358      C1359   1.398       .  A
C1358      C1363   1.400       .  A
C1358      C1599   1.433       .  S
C1359      C1360   1.398       .  A
C1359      H1364   1.085       .  S
C1360      C1361   1.404       .  A
C1360      C1585   1.440       .  S
C1361      C1362   1.405       .  A
C1361      H1365   1.084       .  S
C1362      C1363   1.399       .  A
C1362      C1581   1.441       .  S
C1363      H1366   1.085       .  S
C1367      C1580   1.441       .  S
C1368      C1369   1.399   1_455  A
C1369      C1370   1.401       .  A
C1369      C1575   1.439       .  S
C1370      C1371   1.402       .  A
C1370      H1374   1.085       .  S
C1371      C1372   1.404   1_655  A
C1371      C1577   1.442       .  S
C1376      C1377   1.403       .  A
C1376      C1381   1.400       .  A
C1376      C1598   1.440       .  S
C1377      C1378   1.404       .  A
C1377      H1382   1.084       .  S
C1378      C1379   1.402       .  A
C1378      C1578   1.442       .  S
C1379      C1380   1.401       .  A
C1379      H1383   1.085       .  S
C1380      C1381   1.399       .  A
C1380      C1574   1.439       .  S
C1381      H1384   1.085       .  S
O1385     Ni1391   1.932       .  S
O1385      C1406   1.272       .  A
O1386      C1395   1.268       .  A
O1387     Ni1391   1.905       .  S
O1387     Ni1403   1.911       .  S
O1387      H1410   0.966   1_565  S
C1388      C1576   1.433       .  S
C1388      O1405   1.273       .  A
O1389      C1395   1.272       .  A
O1390     Ni1408   1.908       .  S
O1390      C1392   1.268       .  A
Ni1391     O1396   1.908       .  S
C1392      C1590   1.451       .  S
C1392      O1402   1.279       .  A
O1393     Ni1409   1.913       .  S
O1393      C1399   1.273       .  A
O1394      C1399   1.276       .  A
C1395      C1583   1.435       .  S
O1397     Ni1408   1.928       .  S
C1398      C1591   1.451       .  S
C1398      O1404   1.279       .  A
C1399      C1573   1.433       .  S
H1400      O1401   0.966       .  S
O1401     Ni1403   1.899       .  S
Ni1403     O1407   1.903       .  S
Ni1403     O1405   1.913       .  S
O1404     Ni1409   1.954       .  S
C1406      C1582   1.435       .  S
C1406      O1407   1.268       .  A
C1411      C1412   1.403       .  A
C1411      C1416   1.400       .  A
C1411      C1571   1.441       .  S
C1412      C1413   1.405       .  A
C1412      H1417   1.084       .  S
C1413      C1414   1.405       .  A
C1413      C1569   1.446       .  S
C1414      C1415   1.405       .  A
C1414      H1418   1.084       .  S
C1415      C1416   1.399       .  A
C1415      C1567   1.444       .  S
C1416      H1419   1.085       .  S
C1420      C1421   1.403       .  A
C1420      C1566   1.440       .  S
C1421      C1422   1.404       .  A
C1421      H1426   1.084       .  S
C1422      C1423   1.404       .  A
C1422      C1570   1.446       .  S
C1423      H1427   1.084   1_565  S
C1424      C1425   1.398       .  A
C1424      C1563   1.442       .  S
C1425      H1428   1.085       .  S
C1429      C1558   1.443       .  S
C1430      C1431   1.404       .  A
C1431      C1432   1.401       .  A
C1431      C1562   1.439       .  S
C1432      C1433   1.399       .  A
C1432      H1436   1.085       .  S
C1433      C1434   1.401       .  A
C1433      C1559   1.441       .  S
C1438      C1439   1.403   1_655  A
C1438      C1443   1.401       .  A
C1438      C1553   1.441       .  S
C1439      H1444   1.085       .  S
C1440      C1441   1.400       .  A
C1440      C1560   1.441       .  S
C1441      H1445   1.085       .  S
C1442      C1443   1.403   1_455  A
C1442      C1555   1.438       .  S
C1443      H1446   1.085       .  S
C1447      C1448   1.399       .  A
C1447      C1452   1.404       .  A
C1447      C1548   1.441       .  S
C1448      C1449   1.399       .  A
C1448      H1453   1.085       .  S
C1449      C1450   1.404       .  A
C1449      C1551   1.441       .  S
C1450      C1451   1.405       .  A
C1450      H1454   1.084       .  S
C1451      C1452   1.404       .  A
C1451      C1549   1.446       .  S
C1452      H1455   1.084       .  S
C1456      C1457   1.401   1_655  A
C1456      C1544   1.441       .  S
C1457      H1462   1.085   1_455  S
C1458      C1459   1.406       .  A
C1458      C1550   1.445       .  S
C1459      C1460   1.405       .  A
C1459      H1463   1.084       .  S
C1460      C1461   1.401       .  A
C1460      C1546   1.444       .  S
O1465     Ni1471   1.933       .  S
O1465      C1486   1.270       .  A
O1466     Ni1489   1.904       .  S
O1466      C1475   1.267       .  A
O1467     Ni1471   1.909       .  S
O1467     Ni1489   1.902       .  S
O1467     Ni1483   1.907       .  S
O1467      H1490   0.966       .  S
C1468      C1547   1.435       .  S
C1468      O1485   1.267       .  A
C1468      O1477   1.273       .  A
O1469     Ni1488   1.931       .  S
O1469      C1475   1.270       .  A
O1470     Ni1488   1.893       .  S
O1470      C1472   1.266       .  A
Ni1471     O1474   1.923       .  S
Ni1471     O1476   1.899       .  S
C1472      C1557   1.436       .  S
C1472      O1482   1.278       .  A
O1473     Ni1489   1.919       .  S
O1473      C1479   1.274       .  A
O1474      C1479   1.275       .  A
C1475      C1564   1.436       .  S
O1476      C1478   1.266       .  A
O1477     Ni1488   1.932       .  S
C1478      C1554   1.434       .  S
C1478      O1484   1.273       .  A
C1479      C1543   1.435       .  S
H1480      O1481   0.966       .  S
O1481     Ni1489   1.921       .  S
O1481     Ni1483   1.912       .  S
O1481     Ni1488   1.914       .  S
O1482     Ni1483   1.950       .  S
Ni1483     O1487   1.905       .  S
Ni1483     O1485   1.904       .  S
O1484     Ni1489   1.936       .  S
C1486      C1568   1.438       .  S
C1486      O1487   1.267       .  A
O1491     Ni1497   1.929   1_456  S
O1491      C1512   1.269       .  A
O1492      C1501   1.264       .  A
O1493     Ni1497   1.929   1_556  S
O1493     Ni1515   1.910   1_556  S
O1493     Ni1509   1.916       .  S
O1493      H1516   0.967       .  S
C1494      C1552   1.437       .  S
C1494      O1511   1.268       .  A
C1494      O1503   1.271       .  A
O1495     Ni1514   1.929   1_554  S
O1495      C1501   1.269       .  A
O1496     Ni1514   1.907       .  S
O1496      C1498   1.268       .  A
Ni1497     O1500   1.935       .  S
O1499     Ni1515   1.906       .  S
O1499      C1505   1.267       .  A
O1500      C1505   1.271       .  A
C1501      C1622   1.433       .  S
O1502      C1504   1.268       .  A
C1504      C1631   1.434       .  S
C1504      O1510   1.273       .  A
C1505      C1606   1.437       .  S
O1507     Ni1514   1.929       .  S
O1508     Ni1509   1.937       .  S
Ni1509     O1513   1.898       .  S
C1512      C1556   1.433       .  S
C1512      O1513   1.264   1_455  A
O1517     Ni1523   1.934       .  S
O1517      C1538   1.270       .  A
O1518     Ni1541   1.894       .  S
O1518      C1527   1.263       .  A
O1519     Ni1523   1.931       .  S
O1519     Ni1541   1.912       .  S
O1519     Ni1535   1.909       .  S
O1519      H1542   0.968       .  S
C1520      C1587   1.427       .  S
C1520      O1537   1.263       .  A
C1520      O1529   1.272       .  A
O1521     Ni1540   1.939       .  S
O1521      C1527   1.272       .  A
O1522     Ni1540   1.912       .  S
O1522      C1524   1.271       .  A
Ni1523     O1526   1.936       .  S
Ni1523     O1528   1.909       .  S
C1524      C1595   1.444       .  S
C1524      O1534   1.276       .  A
O1525     Ni1541   1.901       .  S
O1525      C1531   1.266       .  A
O1526      C1531   1.272       .  A
C1527      C1572   1.436       .  S
O1528      C1530   1.268       .  A
O1529     Ni1540   1.938       .  S
C1530      C1545   1.439       .  S
C1530      O1536   1.272       .  A
C1531      C1561   1.435       .  S
H1532      O1533   0.966       .  S
O1533     Ni1541   1.912       .  S
O1533     Ni1535   1.908       .  S
O1533     Ni1540   1.929       .  S
O1534     Ni1535   1.948       .  S
Ni1535     O1539   1.900       .  S
Ni1535     O1537   1.891       .  S
O1536     Ni1541   1.940       .  S
C1538      C1579   1.436       .  S
C1538      O1539   1.263       .  A
C1543      C1544   1.206       .  T
C1545      C1546   1.208       .  T
C1547      C1548   1.206       .  T
C1549      C1550   1.209       .  T
C1551      C1552   1.207       .  T
C1553      C1554   1.206       .  T
C1555      C1556   1.205       .  T
C1557      C1558   1.208       .  T
C1559      C1560   1.207       .  T
C1561      C1562   1.206       .  T
C1563      C1564   1.207       .  T
C1565      C1566   1.206       .  T
C1567      C1568   1.208       .  T
C1569      C1570   1.210       .  T
C1571      C1572   1.207       .  T
C1573      C1574   1.205       .  T
C1575      C1576   1.205       .  T
C1577      C1578   1.207       .  T
C1579      C1580   1.207       .  T
C1581      C1582   1.206       .  T
C1583      C1584   1.206       .  T
C1585      C1586   1.206       .  T
C1587      C1588   1.202       .  T
C1589      C1590   1.216       .  T
C1591      C1592   1.216       .  T
C1593      C1594   1.216       .  T
C1595      C1596   1.212       .  T
C1597      C1598   1.206       .  T
C1599      C1600   1.201       .  T
C1601      C1602   1.212       .  T
C1603      C1604   1.206       .  T
C1605      C1606   1.207       .  T
C1609      C1610   1.209       .  T
C1611      C1612   1.208       .  T
C1613      C1614   1.207       .  T
C1615      C1616   1.205       .  T
C1617      C1618   1.206       .  T
C1619      C1620   1.207       .  T
C1621      C1622   1.205       .  T
C1623      C1624   1.208       .  T
C1625      C1626   1.207       .  T
C1627      C1628   1.207       .  T
C1629      C1630   1.210       .  T
C1631      C1632   1.206       .  T
