geometry optimzed in LAMMPS
_audit_creation_date              2020-11-30 
_audit_creation_method            'lammps2cif' 
_symmetry_space_group_name_H-M    'P1' 
_symmetry_Int_Tables_number       1 
_symmetry_cell_setting            triclinic 
loop_ 
_symmetry_equiv_pos_as_xyz 
  x,y,z 
_cell_length_a                    37.75488763 
_cell_length_b                    38.091786103221295 
_cell_length_c                    31.090350815386813 
_cell_angle_alpha                 89.97859182413673 
_cell_angle_beta                  89.53770578482828 
_cell_angle_gamma                 89.38827918544027 
loop_ 
_atom_site_label 
_atom_site_type_symbol 
_atom_site_fract_x 
_atom_site_fract_y 
_atom_site_fract_z 
_atom_site_charge 
C1          C  0.52583660  0.98002399  0.92485756     0.02000
C2          C  0.53165543  0.01200067  0.22673401     0.02000
C3          C  0.50148322  0.03181229  0.21558017    -0.18500
C4          C  0.46755169  0.01842100  0.22301611     0.02000
C5          C  0.46203997  0.98578032  0.92121228     0.02000
C6          C  0.49215254  0.96600393  0.93128666    -0.18500
H7          H  0.48937488  0.93979668  0.94443520     0.04000
H8          H  0.50441003  0.05752580  0.20112709     0.04000
C9          C  0.84250480  0.89231331  0.26946488     0.86200
C10         C  0.86137513  0.90890549  0.30777022    -0.53400
C11         C  0.89720251  0.90375036  0.30762726     0.09100
C12         C  0.91126240  0.88227427  0.26909064     0.20100
C13         C  0.86166036  0.90824613  0.23022031    -0.54700
C14         C  0.89754222  0.90317256  0.23015146     0.09200
C15         C  0.85388323  0.85369667  0.26983786    -0.54300
C16         C  0.88965170  0.84808363  0.26944615     0.09800
H17         H  0.84763719  0.92435298  0.33222750     0.14300
H18         H  0.94045487  0.87834658  0.26888850     0.00100
H19         H  0.84901104  0.92416355  0.20581746     0.14600
H20         H  0.83489440  0.83248080  0.27095007     0.14400
C21         C  0.92042450  0.92107982  0.19860748     0.42200
N22         N  0.93521576  0.95654716  0.14825593     0.01100
C23         C  0.08674957  0.95077435  0.35276827    -0.06800
H24         H  0.11200716  0.96523555  0.18050627     0.06600
C25         C  0.04242132  0.08435642  0.17444158    -0.07200
Co26       Co  0.99948416  0.93219693  0.09973372     0.74200
N27         N  0.06401450  0.95798468  0.14416512    -0.26300
Co28       Co  0.06319384  0.99731767  0.09740880     0.74100
C29         C  0.07537842  0.07305738  0.19406081     0.42300
N30         N  0.95756349  0.05980328  0.14694095     0.00700
N31         N  0.06201980  0.03659984  0.14457540     0.00800
N32         N  0.04504053  0.90856417  0.35692827    -0.47200
H33         H  0.96877029  0.88513040  0.18550670     0.06600
N34         N  0.03978073  0.93322464  0.14461298     0.01100
N35         N  0.06095105  0.03652361  0.05031923     0.00800
C36         C  0.07538951  0.07249295  0.33373415     0.42400
N37         N  0.93333135  0.03511693  0.14834271    -0.25800
C38         C  0.95343588  0.90922480  0.35665408    -0.06700
N39         N  0.91052321  0.95050282  0.17760445    -0.46900
N40         N  0.08639644  0.04291345  0.35382000    -0.47100
C41         C  0.91985293  0.92135716  0.33889921     0.42200
N42         N  0.03806248  0.93329030  0.05189153     0.01100
N43         N  0.93181067  0.03510950  0.05437506    -0.25800
N44         N  0.96053292  0.93234511  0.14795471    -0.26300
N45         N  0.95625965  0.05961553  0.05399961     0.00700
H46         H  0.88489691  0.02830308  0.35127322     0.06600
H47         H  0.02682770  0.10746507  0.34886345     0.06600
N48         N  0.06226715  0.95806563  0.05054511    -0.26400
N49         N  0.03625924  0.06031183  0.14435351    -0.26000
N50         N  0.93386607  0.95650790  0.05531910     0.01100
C51         C  0.07637124  0.91756554  0.19312997     0.42500
C52         C  0.91015235  0.04279228  0.18012989    -0.07200
N53         N  0.03514884  0.06016185  0.05171068    -0.26000
H54         H  0.02647665  0.10761207  0.18053635     0.06600
N55         N  0.04645638  0.90830211  0.17302484    -0.47200
H56         H  0.88648616  0.02826163  0.18781514     0.06600
C57         C  0.92089556  0.07567854  0.33825951     0.42300
C58         C  0.95371008  0.90887556  0.17923648    -0.06700
Co59       Co  0.93294053  0.99571037  0.10159905     0.73800
N60         N  0.95182728  0.08493985  0.17552023    -0.46900
C61         C  0.07412295  0.91792083  0.33460892     0.42600
N62         N  0.91008553  0.95070571  0.36025237    -0.46900
Co63       Co  0.99630667  0.06031449  0.09922352     0.73900
C64         C  0.04261678  0.08407216  0.35448696    -0.07200
C65         C  0.08817227  0.95059701  0.17443978    -0.06800
N66         N  0.95924984  0.93241120  0.05423489    -0.26300
N67         N  0.08634325  0.04330498  0.17403313    -0.47100
H68         H  0.11030219  0.96545566  0.34493464     0.06600
C69         C  0.90891308  0.04270052  0.35715244    -0.07200
Cl70       Cl  0.99798665  0.99636600  0.09952209    -0.50200
C71         C  0.92254558  0.07597851  0.19780314     0.42300
H72         H  0.96858957  0.88566133  0.34952186     0.06500
N73         N  0.95092447  0.08461993  0.35845378    -0.46900
C74         C  0.89300809  0.15371756  0.26862857     0.86200
C75         C  0.90800283  0.13419943  0.30766843    -0.54000
C76         C  0.90287230  0.09878448  0.30715538     0.09100
C77         C  0.88256753  0.08578103  0.26755665     0.20100
C78         C  0.91042802  0.13456841  0.23000335    -0.54700
C79         C  0.90502539  0.09911281  0.22962935     0.09200
C80         C  0.85396057  0.14339810  0.26689093    -0.54300
C81         C  0.84813825  0.10804597  0.26626107     0.09800
H82         H  0.92285884  0.14721987  0.33272552     0.14300
H83         H  0.87854102  0.05694505  0.26733729     0.00100
H84         H  0.92669967  0.14691917  0.20568447     0.14600
H85         H  0.83273542  0.16278965  0.26494320     0.14400
C86         C  0.10655325  0.84133637  0.26439917     0.86200
C87         C  0.08787344  0.85984465  0.30228178    -0.54000
C88         C  0.09150897  0.89547179  0.30228239     0.09100
C89         C  0.11331089  0.90966490  0.26436706     0.20100
C90         C  0.09084746  0.85963341  0.22455451    -0.54700
C91         C  0.09427712  0.89527507  0.22484762     0.09200
C92         C  0.14500473  0.85376926  0.26600640    -0.54300
C93         C  0.14862785  0.88937039  0.26627436     0.09800
H94         H  0.07286983  0.84594335  0.32677849     0.14300
H95         H  0.11585927  0.93869162  0.26453839     0.00100
H96         H  0.07676227  0.84665348  0.19903915     0.14600
H97         H  0.16749672  0.83576340  0.26703684     0.14400
C98         C  0.11146192  0.14672813  0.26413737     0.86200
C99         C  0.09375114  0.12958003  0.22532625    -0.54000
C100        C  0.09573272  0.09373161  0.22499472     0.09100
C101        C  0.11592838  0.07794472  0.26326984     0.20100
C102        C  0.09428549  0.12905358  0.30317081    -0.54700
C103        C  0.09609705  0.09324400  0.30269130     0.09200
C104        C  0.14953137  0.13227461  0.26312364    -0.54300
C105        C  0.15198962  0.09653687  0.26269916     0.09800
H106        H  0.07959252  0.14456704  0.20106473     0.14300
H107        H  0.11758456  0.04880751  0.26289156     0.00100
H108        H  0.08038505  0.14374462  0.32818120     0.14600
H109        H  0.17309616  0.14809943  0.26108806     0.14400
C110        C  0.02829088  0.52991971  0.97001583     0.02000
C111        C  0.99099159  0.53372819  0.97243258     0.02000
C112        C  0.96977629  0.50358662  0.97199801    -0.18500
C113        C  0.98538224  0.46989154  0.97089511     0.02000
C114        C  0.02278483  0.46647078  0.97048242     0.02000
C115        C  0.04381342  0.49648376  0.97034567    -0.18500
H116        H  0.07240045  0.49378576  0.96820074     0.04000
H117        H  0.94118440  0.50633019  0.97301124     0.04000
C118        C  0.03841992  0.43004345  0.29334959    -0.03600
C119        C  0.03227063  0.41122654  0.25540653    -0.09400
C120        C  0.04645003  0.37754899  0.25016525    -0.17100
C121        C  0.06689878  0.36248557  0.28277697     0.25100
C122        C  0.07717008  0.38594456  0.99899082    -0.18700
C123        C  0.06219876  0.41966307  0.00086291    -0.07600
C124        C  0.07898926  0.32685886  0.27847636    -0.14100
C125        C  0.08664417  0.29630200  0.27461295    -0.13800
C126        C  0.09341781  0.25935425  0.27044216     0.25000
C127        C  0.12813971  0.24641534  0.27030560    -0.19200
C128        C  0.13464210  0.21032366  0.26767801    -0.07700
C129        C  0.10630766  0.18648714  0.26508902    -0.03800
C130        C  0.07145849  0.20014588  0.26481941    -0.09100
C131        C  0.06508978  0.23622361  0.26743338    -0.16700
H132        H  0.01594631  0.42242038  0.23028390     0.11400
H133        H  0.04088578  0.36299635  0.22110230     0.10700
H134        H  0.09334792  0.37658509  0.02532077     0.10700
H135        H  0.06685017  0.43600529  0.02870768     0.11200
H136        H  0.12828694  0.25266470  0.00812827     0.11200
H137        H  0.16193023  0.20188608  0.26853867     0.11200
H138        H  0.04904751  0.18268518  0.26308190     0.11400
H139        H  0.03804189  0.24604178  0.26756914     0.10200
C140        C  0.04933195  0.55900734  0.29985863    -0.03600
C141        C  0.07373834  0.57303686  0.99402935    -0.09400
C142        C  0.09064158  0.60529373  0.98852575    -0.17100
C143        C  0.08170119  0.62445026  0.29265508     0.25100
C144        C  0.08279549  0.60105397  0.25793028    -0.18700
C145        C  0.06678427  0.56828248  0.26159090    -0.07600
C146        C  0.09298009  0.65997923  0.28696579    -0.14100
C147        C  0.09859412  0.69074690  0.28210184    -0.13800
C148        C  0.10169640  0.72796630  0.27651185     0.25000
C149        C  0.08804158  0.74401201  0.23969176    -0.19200
C150        C  0.08934092  0.78044167  0.23496812    -0.07700
C151        C  0.10422723  0.80149344  0.26736365    -0.03800
C152        C  0.11806491  0.78476889  0.30415354    -0.09100
C153        C  0.11677327  0.74836167  0.30870188    -0.16700
H154        H  0.07688613  0.55873137  0.02388776     0.11400
H155        H  0.10675807  0.61559060  0.01418610     0.10700
H156        H  0.09461292  0.60872976  0.22753457     0.10700
H157        H  0.06619948  0.55103626  0.23391470     0.11200
H158        H  0.07612236  0.72834652  0.21468303     0.11200
H159        H  0.07859417  0.79135845  0.20585897     0.11200
H160        H  0.12982312  0.80008386  0.32957192     0.11400
H161        H  0.12723213  0.73617824  0.33749139     0.10200
C162        C  0.96144765  0.43610896  0.30438494    -0.03600
C163        C  0.96448490  0.41415977  0.00458820    -0.09400
C164        C  0.94897860  0.38112448  0.00095964    -0.17100
C165        C  0.92966104  0.36988114  0.29932562     0.25100
C166        C  0.92312164  0.39520831  0.26754774    -0.18700
C167        C  0.93884807  0.42827594  0.27014665    -0.07600
C168        C  0.91758681  0.33438276  0.29399793    -0.14100
C169        C  0.91053211  0.30381008  0.28912046    -0.13800
C170        C  0.90502220  0.26676302  0.28287265     0.25000
C171        C  0.88716131  0.24707664  0.31400540    -0.19200
C172        C  0.88329123  0.21087137  0.30861654    -0.07700
C173        C  0.89747858  0.19348841  0.27217270    -0.03800
C174        C  0.91493440  0.21385668  0.24069853    -0.09100
C175        C  0.91868546  0.25008782  0.24616882    -0.16700
H176        H  0.97919809  0.42041925  0.03329350     0.11400
H177        H  0.95165585  0.36248633  0.02708819     0.10700
H178        H  0.90706116  0.38892754  0.23994284     0.10700
H179        H  0.93504298  0.44696563  0.24428424     0.11200
H180        H  0.87647792  0.25963307  0.34262444     0.11200
H181        H  0.86942883  0.19618784  0.33326952     0.11200
H182        H  0.92579429  0.20252004  0.21170362     0.11400
H183        H  0.93254225  0.26510070  0.22178948     0.10200
C184        C  0.90496887  0.81201395  0.26962024    -0.03600
C185        C  0.88814894  0.78513429  0.24670502    -0.09400
C186        C  0.89970396  0.75035889  0.25026060    -0.17100
C187        C  0.92831043  0.74182414  0.27666432     0.25100
C188        C  0.94615159  0.76853953  0.29839952    -0.18700
C189        C  0.93462076  0.80355242  0.29476673    -0.07600
C190        C  0.93826103  0.70547859  0.28223399    -0.14100
C191        C  0.94494929  0.67458230  0.28605258    -0.13800
C192        C  0.95291908  0.63759777  0.28937554     0.25000
C193        C  0.97450660  0.62803757  0.00604603    -0.19200
C194        C  0.98436885  0.59255655  0.00779699    -0.07700
C195        C  0.97274862  0.56658483  0.29655624    -0.03800
C196        C  0.97571755  0.58404874  0.25694321    -0.09100
C197        C  0.96585410  0.61935951  0.25337051    -0.16700
H198        H  0.86564796  0.79094856  0.22642202     0.11400
H199        H  0.88586417  0.73002023  0.23302379     0.10700
H200        H  0.96619602  0.76788136  0.99759961     0.10700
H201        H  0.94791977  0.82369525  0.31289490     0.11200
H202        H  0.98336922  0.64575066  0.03091255     0.11200
H203        H  0.00096227  0.58345854  0.03386856     0.11200
H204        H  0.98699489  0.57063759  0.22923508     0.11400
H205        H  0.96917335  0.63266227  0.22282875     0.10200
C206        C  0.43548860  0.03861407  0.21101535    -0.03600
C207        C  0.41355497  0.02514237  0.17881198    -0.09400
C208        C  0.37741654  0.03338301  0.17870556    -0.17100
C209        C  0.36312898  0.05558254  0.21034368     0.25100
C210        C  0.38560359  0.07209634  0.23956245    -0.18700
C211        C  0.41394021  0.05457648  0.93126428    -0.07600
C212        C  0.32535364  0.05790659  0.21630646    -0.14100
C213        C  0.29412725  0.05898152  0.22466663    -0.13800
C214        C  0.25767764  0.06276819  0.23785431     0.25000
C215        C  0.24966681  0.08197195  0.27503552    -0.19200
C216        C  0.21455994  0.09018051  0.28531962    -0.07700
C217        C  0.18699612  0.07921808  0.25856647    -0.03800
C218        C  0.19485341  0.05774666  0.22300161    -0.09100
C219        C  0.23021323  0.04969935  0.21251593    -0.16700
H220        H  0.42362402  0.00530257  0.15680928     0.11400
H221        H  0.36029491  0.02044160  0.15600845     0.10700
H222        H  0.36270726  0.06989313  0.95538870     0.10700
H223        H  0.42592285  0.05593052  0.96275509     0.11200
H224        H  0.27065439  0.09207487  0.29495922     0.11200
H225        H  0.20898673  0.10691205  0.31278178     0.11200
H226        H  0.17397644  0.04948716  0.20168010     0.11400
H227        H  0.23617114  0.03471796  0.18369914     0.10200
C228        C  0.18351322  0.90627134  0.26949175    -0.03600
C229        C  0.19167321  0.93567940  0.24417955    -0.09400
C230        C  0.22571509  0.94982341  0.24513370    -0.17100
C231        C  0.25153124  0.93495280  0.27186789     0.25100
C232        C  0.24311208  0.90645843  0.29821523    -0.18700
C233        C  0.20933077  0.89214412  0.29701310    -0.07600
C234        C  0.28738875  0.94698143  0.27040824    -0.14100
C235        C  0.31843314  0.95365561  0.26866673    -0.13800
C236        C  0.35588895  0.95904659  0.26515368     0.25000
C237        C  0.37372157  0.96589312  0.97190653    -0.19200
C238        C  0.40994497  0.97262822  0.96802137    -0.07700
C239        C  0.42819636  0.97233032  0.25455806    -0.03800
C240        C  0.41157662  0.94786911  0.22804944    -0.09100
C241        C  0.37547358  0.94130017  0.23330491    -0.16700
H242        H  0.17220027  0.94685019  0.22260322     0.11400
H243        H  0.23212671  0.97172966  0.22437312     0.10700
H244        H  0.26292476  0.89477734  0.31897302     0.10700
H245        H  0.20344703  0.86982250  0.31734181     0.11200
H246        H  0.36077536  0.96857406  0.00297624     0.11200
H247        H  0.42448828  0.98128829  0.99589500     0.11200
H248        H  0.42608165  0.93540516  0.20191707     0.11400
H249        H  0.36261925  0.92318318  0.21175902     0.10200
C250        C  0.80233321  0.89631436  0.27200539    -0.03600
C251        C  0.78183785  0.90814089  0.23704344    -0.09400
C252        C  0.74503855  0.91058323  0.24058692    -0.17100
C253        C  0.72794633  0.90103997  0.27877879     0.25100
C254        C  0.74772154  0.88868568  0.31352769    -0.18700
C255        C  0.78458508  0.88605648  0.31004314    -0.07600
C256        C  0.69019623  0.90514734  0.28215454    -0.14100
C257        C  0.65901258  0.91196184  0.28169756    -0.13800
C258        C  0.62332718  0.92472355  0.27741833     0.25000
C259        C  0.60144096  0.91116859  0.24540502    -0.19200
C260        C  0.56890827  0.92741755  0.23669417    -0.07700
C261        C  0.55841351  0.95751670  0.25964787    -0.03800
C262        C  0.57792678  0.97021535  0.97186734    -0.09100
C263        C  0.61104238  0.95476408  0.97880011    -0.16700
H264        H  0.79349804  0.91490961  0.20645566     0.11400
H265        H  0.72985403  0.91997002  0.21339407     0.10700
H266        H  0.73470684  0.88116833  0.34327293     0.10700
H267        H  0.79939761  0.87608189  0.33720595     0.11200
H268        H  0.61018534  0.88905572  0.22599953     0.11200
H269        H  0.55287727  0.91777201  0.21057583     0.11200
H270        H  0.56928684  0.99196840  0.99193347     0.11400
H271        H  0.62765646  0.96466876  0.00422323     0.10200
C272        C  0.56741623  0.02705308  0.22073635    -0.03600
C273        C  0.57687557  0.05635447  0.92683177    -0.09400
C274        C  0.61280794  0.06644518  0.24641007    -0.17100
C275        C  0.63871347  0.04735811  0.22354762     0.25100
C276        C  0.62868377  0.01926692  0.19745501    -0.18700
C277        C  0.59317458  0.00928190  0.19584631    -0.07600
C278        C  0.67566700  0.05528851  0.22902134    -0.14100
C279        C  0.70630841  0.06199659  0.23580177    -0.13800
C280        C  0.74218565  0.07164073  0.24565310     0.25000
C281        C  0.77106694  0.05328096  0.22763879    -0.19200
C282        C  0.80576359  0.06413768  0.23575602    -0.07700
C283        C  0.81188763  0.09360328  0.26178410    -0.03800
C284        C  0.78271004  0.11102724  0.28092405    -0.09100
C285        C  0.74818655  0.10015017  0.27285749    -0.16700
H286        H  0.55883136  0.06874089  0.94958538     0.11400
H287        H  0.62024065  0.08825127  0.26667214     0.10700
H288        H  0.64843618  0.00433684  0.17956701     0.10700
H289        H  0.58602418  0.98660834  0.17691234     0.11200
H290        H  0.76675896  0.03106604  0.20664759     0.11200
H291        H  0.82762157  0.05038591  0.22029924     0.11200
H292        H  0.78654593  0.13342190  0.30173681     0.11400
H293        H  0.72611652  0.11437907  0.28731284     0.10200
C294        C  0.52749716  0.97836045  0.24556773     0.02000
C295        C  0.53264278  0.01156621  0.54314506     0.02000
C296        C  0.50203849  0.03236370  0.53767148    -0.18500
C297        C  0.46841027  0.01701754  0.53929129     0.02000
C298        C  0.46369943  0.98529863  0.24297785     0.02000
C299        C  0.49359210  0.96520360  0.25313882    -0.18500
H300        H  0.49047192  0.93982047  0.26843035     0.04000
H301        H  0.50427652  0.06058445  0.53444029     0.04000
C302        C  0.84331097  0.89017643  0.59982673     0.86200
C303        C  0.86080802  0.90815288  0.63848827    -0.53400
C304        C  0.89677766  0.90453931  0.63902884     0.09100
C305        C  0.91231452  0.88320711  0.60136628     0.20100
C306        C  0.86226680  0.90645482  0.56093291    -0.54700
C307        C  0.89826929  0.90293462  0.56180111     0.09200
C308        C  0.85643624  0.85205232  0.60139806    -0.54300
C309        C  0.89240657  0.84810651  0.60218005     0.09800
H310        H  0.84703024  0.92401914  0.66228785     0.14300
H311        H  0.94164037  0.88062692  0.60183379     0.00100
H312        H  0.84845498  0.92068766  0.53571852     0.14600
H313        H  0.83844874  0.83000132  0.60266158     0.14400
C314        C  0.92100920  0.92119735  0.53076176     0.42200
N315        N  0.93615966  0.95704243  0.48124257     0.01100
C316        C  0.08536565  0.95402635  0.68609777    -0.06800
H317        H  0.11252242  0.96559853  0.51535715     0.06600
C318        C  0.04336015  0.08510943  0.50759118    -0.07200
Co319      Co  0.00066317  0.93250568  0.43338426     0.74200
N320        N  0.06483698  0.95827860  0.47851929    -0.26300
Co321      Co  0.06435509  0.99752791  0.43153458     0.74100
C322        C  0.07634518  0.07408745  0.52746619     0.42300
N323        N  0.95856027  0.06028095  0.47979724     0.00700
N324        N  0.06303801  0.03711716  0.47842360     0.00800
N325        N  0.04389109  0.91154591  0.68929843    -0.47200
H326        H  0.96949291  0.88541703  0.51810916     0.06600
N327        N  0.04067092  0.93344830  0.47868878     0.01100
N328        N  0.06231743  0.03647322  0.38413628     0.00800
C329        C  0.07282828  0.07536397  0.66645064     0.42400
N330        N  0.93420108  0.03571115  0.48119941    -0.25800
C331        C  0.95215574  0.91170159  0.68821537    -0.06700
N332        N  0.91112194  0.95072184  0.51003989    -0.46900
N333        N  0.08372178  0.04588257  0.68679952    -0.47100
C334        C  0.91849928  0.92311711  0.67030115     0.42200
N335        N  0.03954800  0.93333583  0.38601624     0.01100
N336        N  0.93311752  0.03510860  0.38742328    -0.25800
N337        N  0.96152133  0.93288751  0.48108897    -0.26300
N338        N  0.95750855  0.05966268  0.38688176     0.00700
H339        H  0.88250365  0.03055916  0.68197973     0.06600
H340        H  0.02399744  0.11021178  0.68110478     0.06600
N341        N  0.06381357  0.95805038  0.38487212    -0.26400
N342        N  0.03727429  0.06082098  0.47778154    -0.26000
N343        N  0.93524015  0.95673030  0.38849174     0.01100
C344        C  0.07699519  0.91774567  0.52751652     0.42500
C345        C  0.91070732  0.04386612  0.51252256    -0.07200
N346        N  0.03661045  0.06023763  0.38507759    -0.26000
H347        H  0.02739004  0.10842459  0.51325771     0.06600
N348        N  0.04720619  0.90847436  0.50713453    -0.47200
H349        H  0.88679755  0.02963233  0.51996708     0.06600
C350        C  0.91874081  0.07796098  0.66975514     0.42300
C351        C  0.95450596  0.90922952  0.51196836    -0.06700
Co352      Co  0.93409172  0.99604559  0.43465428     0.73800
N353        N  0.95267738  0.08570161  0.50792123    -0.46900
C354        C  0.07344282  0.92097786  0.66790642     0.42600
N355        N  0.90787985  0.95227060  0.69156094    -0.46900
Co356      Co  0.99749287  0.06061156  0.43233138     0.73900
C357        C  0.03986888  0.08692417  0.68702144    -0.07200
C358        C  0.08877890  0.95089588  0.50903395    -0.06800
N359        N  0.96062975  0.93263059  0.38760304    -0.26300
N360        N  0.08735669  0.04416563  0.50781083    -0.47100
H361        H  0.10916760  0.96863314  0.67926610     0.06600
C362        C  0.90639103  0.04498740  0.68847147    -0.07200
Cl363      Cl  0.99916456  0.99666991  0.43301756    -0.50200
C364        C  0.92312481  0.07717923  0.52991431     0.42300
H365        H  0.96784196  0.88845157  0.68125442     0.06500
N366        N  0.94850577  0.08676471  0.69050114    -0.46900
C367        C  0.89480909  0.15634722  0.59892369     0.86200
C368        C  0.90810962  0.13651318  0.63856629    -0.54000
C369        C  0.90159217  0.10134198  0.63824905     0.09100
C370        C  0.88163035  0.08887780  0.59815091     0.20100
C371        C  0.91221262  0.13626994  0.56105701    -0.54700
C372        C  0.90543713  0.10105899  0.56081221     0.09200
C373        C  0.85541017  0.14762399  0.59605894    -0.54300
C374        C  0.84811672  0.11251426  0.59560248     0.09800
H375        H  0.92308972  0.14909872  0.66385347     0.14300
H376        H  0.87654203  0.06022524  0.59813243     0.00100
H377        H  0.92958976  0.14781082  0.53726368     0.14600
H378        H  0.83510885  0.16789138  0.59334730     0.14400
C379        C  0.10719464  0.84297313  0.60162631     0.86200
C380        C  0.08886846  0.86236104  0.63895568    -0.54000
C381        C  0.09225034  0.89795652  0.63744347     0.09100
C382        C  0.11391626  0.91126960  0.59886085     0.20100
C383        C  0.09101365  0.86020348  0.56125601    -0.54700
C384        C  0.09450618  0.89591739  0.56013108     0.09200
C385        C  0.14559380  0.85547424  0.60199545    -0.54300
C386        C  0.14931991  0.89101439  0.60085382     0.09800
H387        H  0.07379334  0.84905333  0.66389462     0.14300
H388        H  0.11646114  0.94028760  0.59792197     0.00100
H389        H  0.07690490  0.84642657  0.53638947     0.14600
H390        H  0.16806890  0.83743041  0.60257134     0.14400
C391        C  0.11014364  0.14926999  0.59689889     0.86200
C392        C  0.09406843  0.13123563  0.55737422    -0.54000
C393        C  0.09671192  0.09540236  0.55791816     0.09100
C394        C  0.11579048  0.08057954  0.59763182     0.20100
C395        C  0.09127752  0.13177751  0.63492294    -0.54700
C396        C  0.09390254  0.09602197  0.63550313     0.09200
C397        C  0.14823358  0.13563001  0.59851859    -0.54300
C398        C  0.15158889  0.09993946  0.59875422     0.09800
H399        H  0.07969685  0.14469842  0.53227979     0.14300
H400        H  0.11800350  0.05147488  0.59795858     0.00100
H401        H  0.07606412  0.14657162  0.65869044     0.14600
H402        H  0.17089094  0.15299240  0.59814289     0.14400
C403        C  0.02658084  0.52784231  0.30101878     0.02000
C404        C  0.98928527  0.53147351  0.30150933     0.02000
C405        C  0.96812981  0.50142761  0.30322072    -0.18500
C406        C  0.98382015  0.46782654  0.30284477     0.02000
C407        C  0.02114230  0.46451657  0.29985037     0.02000
C408        C  0.04217970  0.49447181  0.29987248    -0.18500
H409        H  0.07077262  0.49182953  0.29778262     0.04000
H410        H  0.93953092  0.50417528  0.30391590     0.04000
C411        C  0.04493046  0.43226834  0.63480164    -0.03600
C412        C  0.03963958  0.41319047  0.59682989    -0.09400
C413        C  0.05442667  0.37971824  0.59204361    -0.17100
C414        C  0.07484908  0.36514566  0.62501379     0.25100
C415        C  0.07380154  0.38145745  0.32032059    -0.18700
C416        C  0.05974264  0.41529757  0.32550848    -0.07600
C417        C  0.08791457  0.32980058  0.62080697    -0.14100
C418        C  0.09601968  0.29941338  0.61604013    -0.13800
C419        C  0.10218967  0.26255308  0.60954206     0.25000
C420        C  0.11675392  0.24205979  0.64231884    -0.19200
C421        C  0.11994658  0.20576117  0.63715065    -0.07700
C422        C  0.10811388  0.18921853  0.59939449    -0.03800
C423        C  0.09478053  0.21049033  0.56591000    -0.09100
C424        C  0.09174240  0.24681618  0.57116266    -0.16700
H425        H  0.02361516  0.42406003  0.57122331     0.11400
H426        H  0.04949617  0.36499304  0.56293117     0.10700
H427        H  0.08944569  0.36986869  0.34581393     0.10700
H428        H  0.06455737  0.42955937  0.35498006     0.11200
H429        H  0.15023117  0.26421825  0.27274561     0.11200
H430        H  0.13092924  0.19031893  0.66320459     0.11200
H431        H  0.08649050  0.19981529  0.53567553     0.11400
H432        H  0.08064296  0.26260366  0.54544224     0.10200
C433        C  0.05585330  0.56109781  0.64573419    -0.03600
C434        C  0.04986823  0.58179936  0.33525209    -0.09400
C435        C  0.06599870  0.61445245  0.33163609    -0.17100
C436        C  0.08852463  0.62650081  0.63963806     0.25100
C437        C  0.09393191  0.60146371  0.60722938    -0.18700
C438        C  0.07773241  0.56874844  0.61034001    -0.07600
C439        C  0.09922504  0.66209457  0.63288021    -0.14100
C440        C  0.10375848  0.69287234  0.62651609    -0.13800
C441        C  0.10530228  0.73001305  0.61918289     0.25000
C442        C  0.08988775  0.74460497  0.58243315    -0.19200
C443        C  0.08992397  0.78094611  0.57605996    -0.07700
C444        C  0.10534327  0.80326802  0.60669163    -0.03800
C445        C  0.12056574  0.78802987  0.64365285    -0.09100
C446        C  0.12060049  0.75177313  0.64979513    -0.16700
H447        H  0.03632068  0.57495901  0.36488036     0.11400
H448        H  0.06480998  0.63249838  0.35855316     0.10700
H449        H  0.10907241  0.60787644  0.57859903     0.10700
H450        H  0.08038802  0.55031712  0.58395948     0.11200
H451        H  0.07764014  0.72786577  0.55873773     0.11200
H452        H  0.07787760  0.79087680  0.54719061     0.11200
H453        H  0.13263066  0.80440027  0.66784641     0.11400
H454        H  0.13231747  0.74076384  0.67856052     0.10200
C455        C  0.96753917  0.43845295  0.63927916    -0.03600
C456        C  0.96636983  0.41127199  0.33727994    -0.09400
C457        C  0.95065773  0.37831227  0.33467723    -0.17100
C458        C  0.93728344  0.37176080  0.63040905     0.25100
C459        C  0.93319579  0.39694382  0.59785502    -0.18700
C460        C  0.94813286  0.43025549  0.60234970    -0.07600
C461        C  0.92583254  0.33616163  0.62395386    -0.14100
C462        C  0.91870155  0.30562148  0.61885721    -0.13800
C463        C  0.91214546  0.26870184  0.61295330     0.25000
C464        C  0.89313252  0.24993119  0.64393751    -0.19200
C465        C  0.88749728  0.21397708  0.63856884    -0.07700
C466        C  0.90111562  0.19587344  0.60234750    -0.03800
C467        C  0.91992589  0.21530192  0.57110782    -0.09100
C468        C  0.92539131  0.25131479  0.57652152    -0.16700
H469        H  0.98377723  0.41684856  0.36388798     0.11400
H470        H  0.95602319  0.35894144  0.35937561     0.10700
H471        H  0.91967562  0.39039688  0.56837533     0.10700
H472        H  0.94638755  0.44883101  0.57604370     0.11200
H473        H  0.88274856  0.26304271  0.67234515     0.11200
H474        H  0.87268466  0.20004732  0.66306444     0.11200
H475        H  0.93044865  0.20341674  0.54224841     0.11400
H476        H  0.94010123  0.26561390  0.55223516     0.10200
C477        C  0.90958374  0.81294190  0.60484825    -0.03600
C478        C  0.89466220  0.78430635  0.58325135    -0.09400
C479        C  0.90798422  0.75039356  0.58926827    -0.17100
C480        C  0.93645897  0.74447537  0.61687782     0.25100
C481        C  0.95249894  0.77296277  0.63728088    -0.18700
C482        C  0.93919344  0.80712061  0.63115593    -0.07600
C483        C  0.94793654  0.70889073  0.62489050    -0.14100
C484        C  0.95489373  0.67811900  0.62940174    -0.13800
C485        C  0.96220897  0.64096485  0.63183006     0.25000
C486        C  0.94874498  0.61996194  0.32867448    -0.19200
C487        C  0.95860340  0.58451947  0.33226836    -0.07700
C488        C  0.97951792  0.56917923  0.63682271    -0.03800
C489        C  0.98600746  0.58807219  0.59883599    -0.09100
C490        C  0.97743466  0.62375195  0.59637686    -0.16700
H491        H  0.87227273  0.78806313  0.56213190     0.11400
H492        H  0.89556149  0.72864539  0.57301846     0.10700
H493        H  0.96843100  0.76222600  0.31885619     0.10700
H494        H  0.95106983  0.82866126  0.64832591     0.11200
H495        H  0.93874986  0.63382532  0.35674724     0.11200
H496        H  0.95669131  0.57155224  0.36318549     0.11200
H497        H  0.99918933  0.57547552  0.57177899     0.11400
H498        H  0.98346475  0.63809913  0.56718420     0.10200
C499        C  0.43586629  0.03896009  0.53908918    -0.03600
C500        C  0.41226026  0.03624689  0.50457650    -0.09400
C501        C  0.37640938  0.04484447  0.51033569    -0.17100
C502        C  0.36402214  0.05651544  0.55049211     0.25100
C503        C  0.38809911  0.06229486  0.58373746    -0.18700
C504        C  0.42178256  0.06376218  0.23977922    -0.07600
C505        C  0.32649959  0.05957523  0.55886410    -0.14100
C506        C  0.29530613  0.06147710  0.56754547    -0.13800
C507        C  0.25852342  0.06604598  0.57934548     0.25000
C508        C  0.24960969  0.08737745  0.61446849    -0.19200
C509        C  0.21422080  0.09599188  0.62295104    -0.07700
C510        C  0.18718882  0.08330694  0.59648015    -0.03800
C511        C  0.19597232  0.05990555  0.56307421    -0.09100
C512        C  0.23159610  0.05146242  0.55437933    -0.16700
H513        H  0.42090033  0.02433134  0.47459122     0.11400
H514        H  0.35806475  0.04030772  0.48436507     0.10700
H515        H  0.37478354  0.08931622  0.26420905     0.10700
H516        H  0.43816325  0.07390935  0.26526641     0.11200
H517        H  0.27012245  0.09867717  0.63414507     0.11200
H518        H  0.20802798  0.11409579  0.64887207     0.11200
H519        H  0.17560984  0.05020242  0.54195066     0.11400
H520        H  0.23819527  0.03488893  0.52710997     0.10200
C521        C  0.18464579  0.90742543  0.60036032    -0.03600
C522        C  0.19208942  0.93536125  0.57233903    -0.09400
C523        C  0.22688253  0.94722230  0.56755554    -0.17100
C524        C  0.25427130  0.93148752  0.59112535     0.25100
C525        C  0.24663218  0.90494115  0.62069998    -0.18700
C526        C  0.21205623  0.89297994  0.62532733    -0.07600
C527        C  0.29056177  0.94059005  0.58322207    -0.14100
C528        C  0.32159708  0.94558743  0.57684657    -0.13800
C529        C  0.35885192  0.95056449  0.56983002     0.25000
C530        C  0.37274671  0.98225714  0.29297287    -0.19200
C531        C  0.40885673  0.98876114  0.28781573    -0.07700
C532        C  0.43051057  0.96498864  0.55529118    -0.03800
C533        C  0.40944246  0.95316062  0.52142440    -0.09100
C534        C  0.37362828  0.94602776  0.52868800    -0.16700
H535        H  0.17144606  0.94674665  0.55261845     0.11400
H536        H  0.23258824  0.96777571  0.54451790     0.10700
H537        H  0.26759717  0.89271216  0.63922318     0.10700
H538        H  0.20687058  0.87178940  0.64767174     0.11200
H539        H  0.35783006  0.99600908  0.31779239     0.11200
H540        H  0.42135923  0.00794617  0.30825599     0.11200
H541        H  0.42022092  0.95137914  0.48909881     0.11400
H542        H  0.35725019  0.93807234  0.50203833     0.10200
C543        C  0.80314958  0.89232561  0.59666943    -0.03600
C544        C  0.78692685  0.87953018  0.55920041    -0.09400
C545        C  0.75020361  0.88092619  0.55467301    -0.17100
C546        C  0.72902882  0.89458309  0.58781598     0.25100
C547        C  0.74455429  0.90648882  0.62564444    -0.18700
C548        C  0.78128011  0.90525993  0.63023657    -0.07600
C549        C  0.69158093  0.89848661  0.58205799    -0.14100
C550        C  0.66084554  0.90531875  0.57622667    -0.13800
C551        C  0.62579536  0.91818948  0.56779498     0.25000
C552        C  0.61812724  0.93210163  0.52722792    -0.19200
C553        C  0.58580143  0.94910101  0.52022031    -0.07700
C554        C  0.56091389  0.95218219  0.55374595    -0.03800
C555        C  0.57958319  0.96988438  0.29315096    -0.09100
C556        C  0.61199216  0.95359846  0.30189987    -0.16700
H557        H  0.80285406  0.86873422  0.53316156     0.11400
H558        H  0.73837957  0.87171238  0.52516277     0.10700
H559        H  0.72825718  0.91703063  0.65152412     0.10700
H560        H  0.79180457  0.91409705  0.66041082     0.11200
H561        H  0.63766774  0.93101603  0.50153816     0.11200
H562        H  0.58068491  0.96103090  0.48922479     0.11200
H563        H  0.57175677  0.99313063  0.31104885     0.11400
H564        H  0.62888601  0.96446436  0.32643445     0.10200
C565        C  0.56758600  0.02844261  0.54830617    -0.03600
C566        C  0.57729940  0.05639898  0.24493839    -0.09400
C567        C  0.62014011  0.03666552  0.59173854    -0.17100
C568        C  0.63771205  0.05160522  0.55655096     0.25100
C569        C  0.61975446  0.05610573  0.51754069    -0.18700
C570        C  0.58475342  0.04459430  0.51343109    -0.07600
C571        C  0.67435746  0.06138751  0.56068991    -0.14100
C572        C  0.70497118  0.06887721  0.56648567    -0.13800
C573        C  0.74105399  0.07858063  0.57530114     0.25000
C574        C  0.76957534  0.05856074  0.55919005    -0.19200
C575        C  0.80451279  0.06887402  0.56690121    -0.07700
C576        C  0.81131245  0.09941085  0.59073892    -0.03800
C577        C  0.78242734  0.11870047  0.60781988    -0.09100
C578        C  0.74765234  0.10840038  0.60006638    -0.16700
H579        H  0.55788746  0.07023857  0.26458862     0.11400
H580        H  0.63361508  0.03315643  0.62210374     0.10700
H581        H  0.63303526  0.06775551  0.49011313     0.10700
H582        H  0.57156880  0.04706634  0.48274994     0.11200
H583        H  0.76481930  0.03531043  0.54012746     0.11200
H584        H  0.82606856  0.05363615  0.55297938     0.11200
H585        H  0.78665401  0.14193178  0.62706134     0.11400
H586        H  0.72587317  0.12392240  0.61310446     0.10200
C587        C  0.52936589  0.97478576  0.54829926     0.02000
C588        C  0.52959211  0.01411869  0.90732098     0.02000
C589        C  0.49924650  0.03415043  0.89776082    -0.18500
C590        C  0.46551560  0.02018273  0.90472070     0.02000
C591        C  0.46543845  0.98049100  0.54643660     0.02000
C592        C  0.49583918  0.95961598  0.55012094    -0.18500
H593        H  0.49338800  0.93165680  0.55583484     0.04000
H594        H  0.50187452  0.06050460  0.88506854     0.04000
C595        C  0.84217165  0.89320060  0.93399882     0.86200
C596        C  0.86063223  0.90930236  0.97288711    -0.53400
C597        C  0.89648177  0.90468087  0.97290569     0.09100
C598        C  0.91101796  0.88398176  0.93410691     0.20100
C599        C  0.86124110  0.90958390  0.89509837    -0.54700
C600        C  0.89712957  0.90512293  0.89535512     0.09200
C601        C  0.85405460  0.85456938  0.93343760    -0.54300
C602        C  0.88993564  0.84945310  0.93402374     0.09800
H603        H  0.84652138  0.92397307  0.99775589     0.14300
H604        H  0.94025936  0.88045512  0.93415991     0.00100
H605        H  0.84849557  0.92429885  0.86970852     0.14600
H606        H  0.83542510  0.83304596  0.93444019     0.14400
C607        C  0.91960583  0.92339775  0.86379111     0.42200
N608        N  0.93355496  0.95881602  0.81304821     0.01100
C609        C  0.08474692  0.95114151  0.01787120    -0.06800
H610        H  0.11016680  0.96723452  0.84697451     0.06600
C611        C  0.03918796  0.08696031  0.84117634    -0.07200
Co612      Co  0.99830047  0.93511918  0.76501929     0.74200
N613        N  0.06204770  0.96082294  0.81065082    -0.26300
Co614      Co  0.06144196  0.00040044  0.76412992     0.74100
C615        C  0.07190535  0.07559882  0.86141525     0.42300
N616        N  0.95493686  0.06225795  0.81208090     0.00700
N617        N  0.05939621  0.03950604  0.81127155     0.00800
N618        N  0.04316457  0.90882717  0.02231857    -0.47200
H619        H  0.96835930  0.88809798  0.85067595     0.06600
N620        N  0.03793850  0.93596697  0.81034772     0.01100
N621        N  0.05952311  0.03948821  0.71699562     0.00800
C622        C  0.07368086  0.07314812  0.00041319     0.42400
N623        N  0.93083171  0.03743499  0.81328815    -0.25800
C624        C  0.95220157  0.90933471  0.02288416    -0.06700
N625        N  0.90912908  0.95260685  0.84266657    -0.46900
N626        N  0.08495704  0.04343192  0.02004240    -0.47100
C627        C  0.91870307  0.92166160  0.00510209     0.42200
N628        N  0.03746396  0.93648991  0.71787536     0.01100
N629        N  0.93019077  0.03733164  0.71925582    -0.25800
N630        N  0.95914600  0.93491366  0.81275845    -0.26300
N631        N  0.95460690  0.06187944  0.71910087     0.00700
H632        H  0.88363234  0.02873850  0.01794918     0.06600
H633        H  0.02497052  0.10764746  0.01628139     0.06600
N634        N  0.06161444  0.96131049  0.71729314    -0.26400
N635        N  0.03359182  0.06315328  0.81065282    -0.26000
N636        N  0.93278581  0.95879646  0.72000144     0.01100
C637        C  0.07455664  0.91928090  0.85819057     0.42500
C638        C  0.90771999  0.04474755  0.84534937    -0.07200
N639        N  0.03372478  0.06315395  0.71772837    -0.26000
H640        H  0.02300027  0.11006187  0.84722968     0.06600
N641        N  0.04467283  0.91042058  0.83787187    -0.47200
H642        H  0.88427902  0.02990964  0.85320155     0.06600
C643        C  0.91982894  0.07611575  0.00535560     0.42300
C644        C  0.95284876  0.91151914  0.84423162    -0.06700
Co645      Co  0.93111891  0.99800084  0.76641756     0.73800
N646        N  0.94924056  0.08703653  0.84112985    -0.46900
C647        C  0.07188868  0.91847273  0.99949466     0.42600
N648        N  0.90882901  0.95078936  0.02682531    -0.46900
Co649      Co  0.99419670  0.06304664  0.76481993     0.73900
C650        C  0.04088744  0.08426696  0.02142023    -0.07200
C651        C  0.08622404  0.95283152  0.84067715    -0.06800
N652        N  0.95861373  0.93517080  0.71920244    -0.26300
N653        N  0.08325623  0.04606206  0.84129821    -0.47100
H654        H  0.10810630  0.96599790  0.00967302     0.06600
C655        C  0.90768453  0.04301628  0.02404708    -0.07200
Cl656      Cl  0.99625663  0.99914951  0.76509947    -0.50200
C657        C  0.92010194  0.07779259  0.86352999     0.42300
H658        H  0.96755086  0.88599902  0.01528828     0.06500
N659        N  0.94984904  0.08473548  0.02572294    -0.46900
C660        C  0.89228769  0.15493617  0.93631768     0.86200
C661        C  0.90744714  0.13506883  0.97502185    -0.54000
C662        C  0.90210364  0.09962091  0.97426107     0.09100
C663        C  0.88131098  0.08701201  0.93481581     0.20100
C664        C  0.90881369  0.13583882  0.89711208    -0.54700
C665        C  0.90328661  0.10045355  0.89650009     0.09200
C666        C  0.85308101  0.14487534  0.93510433    -0.54300
C667        C  0.84701664  0.10953469  0.93437715     0.09800
H668        H  0.92247434  0.14790216  0.00006901     0.14300
H669        H  0.87707904  0.05821002  0.93436358     0.00100
H670        H  0.92382148  0.14832843  0.87172200     0.14600
H671        H  0.83191951  0.16436141  0.93356326     0.14400
C672        C  0.10441252  0.84232202  0.92865203     0.86200
C673        C  0.08527572  0.86065827  0.96636356    -0.54000
C674        C  0.08903312  0.89626222  0.96676177     0.09100
C675        C  0.11112874  0.91063709  0.92919562     0.20100
C676        C  0.08887175  0.86075858  0.88878143    -0.54700
C677        C  0.09236084  0.89647652  0.88940527     0.09200
C678        C  0.14276242  0.85477326  0.93087815    -0.54300
C679        C  0.14634670  0.89031903  0.93126359     0.09800
H680        H  0.07005614  0.84667369  0.99058537     0.14300
H681        H  0.11379732  0.93965243  0.92962639     0.00100
H682        H  0.07445261  0.84769352  0.86351531     0.14600
H683        H  0.16527599  0.83680370  0.93226713     0.14400
C684        C  0.10753381  0.14914877  0.93219625     0.86200
C685        C  0.08907200  0.13202753  0.89363306    -0.54000
C686        C  0.09206980  0.09628016  0.89248601     0.09100
C687        C  0.11356672  0.08049295  0.92962321     0.20100
C688        C  0.09142527  0.13047437  0.97118550    -0.54700
C689        C  0.09414913  0.09470686  0.96993795     0.09200
C690        C  0.14571896  0.13573475  0.92955868    -0.54300
C691        C  0.14914731  0.10003938  0.92815490     0.09800
H692        H  0.07370320  0.14595040  0.86985745     0.14300
H693        H  0.11593772  0.05140572  0.92856966     0.00100
H694        H  0.07747057  0.14448970  0.99671700     0.14600
H695        H  0.16826959  0.15319567  0.92799797     0.14400
C696        C  0.03283106  0.53003346  0.64461753     0.02000
C697        C  0.99558840  0.53382887  0.64187194     0.02000
C698        C  0.97432585  0.50382283  0.64052013    -0.18500
C699        C  0.98992775  0.47016247  0.64031595     0.02000
C700        C  0.02730525  0.46672801  0.64063188     0.02000
C701        C  0.04831406  0.49659212  0.64367586    -0.18500
H702        H  0.07692953  0.49385205  0.64404287     0.04000
H703        H  0.94577917  0.50666475  0.63877608     0.04000
C704        C  0.04044052  0.43175501  0.96746153    -0.03600
C705        C  0.03474990  0.41025938  0.93159229    -0.09400
C706        C  0.04963491  0.37663352  0.92978303    -0.17100
C707        C  0.07065817  0.36432840  0.96356434     0.25100
C708        C  0.08095841  0.38438354  0.66257031    -0.18700
C709        C  0.06616152  0.41797725  0.66738160    -0.07600
C710        C  0.08428671  0.32903307  0.96205552    -0.14100
C711        C  0.09269838  0.29865091  0.95800086    -0.13800
C712        C  0.09869779  0.26195202  0.95003223     0.25000
C713        C  0.11709942  0.24112152  0.97952912    -0.19200
C714        C  0.12043800  0.20497449  0.97267795    -0.07700
C715        C  0.10515774  0.18900235  0.93643570    -0.03800
C716        C  0.08773429  0.21069697  0.90626853    -0.09100
C717        C  0.08447876  0.24676187  0.91323451    -0.16700
H718        H  0.01840284  0.41938947  0.90530779     0.11400
H719        H  0.04443714  0.36008132  0.90226391     0.10700
H720        H  0.09661791  0.37321439  0.68832016     0.10700
H721        H  0.07045589  0.43244323  0.69682989     0.11200
H722        H  0.12501497  0.25401558  0.67214517     0.11200
H723        H  0.13434668  0.18919418  0.99626213     0.11200
H724        H  0.07616310  0.20062589  0.87741408     0.11400
H725        H  0.07029594  0.26279357  0.89009103     0.10200
C726        C  0.05092928  0.56064323  0.96215784    -0.03600
C727        C  0.05249246  0.58539627  0.67947510    -0.09400
C728        C  0.06864882  0.61807092  0.67632298    -0.17100
C729        C  0.08508786  0.62488585  0.95094391     0.25100
C730        C  0.06394315  0.61153543  0.91820719    -0.18700
C731        C  0.04699456  0.57954158  0.92373773    -0.07600
C732        C  0.09728619  0.66032836  0.94751672    -0.14100
C733        C  0.10245181  0.69128383  0.94356673    -0.13800
C734        C  0.10401928  0.72872755  0.93882466     0.25000
C735        C  0.09409697  0.74451663  0.90004630    -0.19200
C736        C  0.09352855  0.78109969  0.89615491    -0.07700
C737        C  0.10277771  0.80245867  0.93127760    -0.03800
C738        C  0.11328603  0.78600755  0.96984513    -0.09100
C739        C  0.11359317  0.74953158  0.97369234    -0.16700
H740        H  0.03578116  0.57976924  0.70704669     0.11400
H741        H  0.06415376  0.63736437  0.70143542     0.10700
H742        H  0.05929523  0.62659125  0.88918479     0.10700
H743        H  0.02951792  0.57020509  0.89886096     0.11200
H744        H  0.08664641  0.72852613  0.87282663     0.11200
H745        H  0.08650058  0.79207184  0.86534564     0.11200
H746        H  0.12131654  0.80156308  0.99716942     0.11400
H747        H  0.12118742  0.73757768  0.00393107     0.10200
C748        C  0.96285622  0.43819707  0.97037465    -0.03600
C749        C  0.96999182  0.41371078  0.67266966    -0.09400
C750        C  0.95499851  0.38055242  0.66821880    -0.17100
C751        C  0.93162678  0.37166459  0.96311157     0.25100
C752        C  0.92865777  0.39608533  0.92950281    -0.18700
C753        C  0.94404580  0.42929282  0.93320424    -0.07600
C754        C  0.91938625  0.33610219  0.95785686    -0.14100
C755        C  0.91200227  0.30546121  0.95382074    -0.13800
C756        C  0.90628961  0.26823089  0.94864644     0.25000
C757        C  0.88407372  0.24998867  0.97691009    -0.19200
C758        C  0.87999082  0.21362310  0.97263383    -0.07700
C759        C  0.89766858  0.19473398  0.93964620    -0.03800
C760        C  0.92018905  0.21358928  0.91164441    -0.09100
C761        C  0.92434327  0.24985261  0.91616583    -0.16700
H762        H  0.98507671  0.41951038  0.70124081     0.11400
H763        H  0.95843186  0.36131621  0.69356724     0.10700
H764        H  0.91554352  0.38904196  0.89991932     0.10700
H765        H  0.94301389  0.44725833  0.90621288     0.11200
H766        H  0.87017652  0.26378610  0.00253953     0.11200
H767        H  0.86288407  0.20010137  0.99517439     0.11200
H768        H  0.93544894  0.20093780  0.88657071     0.11400
H769        H  0.94205468  0.26354754  0.89446756     0.10200
C770        C  0.90582049  0.81373159  0.93800326    -0.03600
C771        C  0.89084924  0.78534001  0.91597444    -0.09400
C772        C  0.90261905  0.75101234  0.92352858    -0.17100
C773        C  0.92946844  0.74440679  0.95329557     0.25100
C774        C  0.94533504  0.77261140  0.97450496    -0.18700
C775        C  0.93367913  0.80714099  0.96674698    -0.07600
C776        C  0.93981882  0.70853851  0.96228898    -0.14100
C777        C  0.94668538  0.67778134  0.96768879    -0.13800
C778        C  0.95445123  0.64069425  0.97156746     0.25000
C779        C  0.95436302  0.62194942  0.66930091    -0.19200
C780        C  0.96293460  0.58610846  0.67178173    -0.07700
C781        C  0.97456076  0.56932928  0.97488284    -0.03800
C782        C  0.95304748  0.58178550  0.94146905    -0.09100
C783        C  0.94312071  0.61731239  0.93978922    -0.16700
H784        H  0.86957841  0.78966358  0.89335123     0.11400
H785        H  0.89028302  0.72952086  0.90669427     0.10700
H786        H  0.97467934  0.76869870  0.65862538     0.10700
H787        H  0.94537922  0.82845056  0.98449819     0.11200
H788        H  0.94243720  0.63498340  0.69688085     0.11200
H789        H  0.95829520  0.57204574  0.70153757     0.11200
H790        H  0.94550300  0.56444186  0.91558842     0.11400
H791        H  0.92754240  0.62676010  0.91299114     0.10200
C792        C  0.43331443  0.04121798  0.89612798    -0.03600
C793        C  0.41707467  0.03878902  0.85578420    -0.09400
C794        C  0.38085526  0.04620222  0.85173714    -0.17100
C795        C  0.36095698  0.05636031  0.88794016     0.25100
C796        C  0.37786356  0.06200084  0.92719883    -0.18700
C797        C  0.42392620  0.05367822  0.57801150    -0.07600
C798        C  0.32291991  0.05784230  0.88658742    -0.14100
C799        C  0.29123501  0.05931288  0.89134408    -0.13800
C800        C  0.25475495  0.06480871  0.90338801     0.25000
C801        C  0.24718034  0.08590874  0.93911636    -0.19200
C802        C  0.21229637  0.09520231  0.94896681    -0.07700
C803        C  0.18443669  0.08338379  0.92330011    -0.03800
C804        C  0.19180844  0.06026927  0.88910266    -0.09100
C805        C  0.22701316  0.05114677  0.87898586    -0.16700
H806        H  0.43152520  0.02784143  0.82861241     0.11400
H807        H  0.36801744  0.04181140  0.82121307     0.10700
H808        H  0.37884412  0.07135731  0.61492117     0.10700
H809        H  0.44158014  0.05524898  0.60521460     0.11200
H810        H  0.26839237  0.09638451  0.95839006     0.11200
H811        H  0.20712075  0.11297008  0.97553751     0.11200
H812        H  0.17066513  0.05116942  0.86871307     0.11400
H813        H  0.23263161  0.03463388  0.85134682     0.10200
C814        C  0.18115757  0.90704220  0.93525079    -0.03600
C815        C  0.19059647  0.93525477  0.90861511    -0.09400
C816        C  0.22481138  0.94893759  0.91045733    -0.17100
C817        C  0.24940633  0.93479302  0.93940221     0.25100
C818        C  0.23962617  0.90752591  0.96695128    -0.18700
C819        C  0.20572880  0.89365164  0.96483833    -0.07600
C820        C  0.28547946  0.94613261  0.93911666    -0.14100
C821        C  0.31666626  0.95218090  0.93838981    -0.13800
C822        C  0.35419224  0.95713242  0.93540232     0.25000
C823        C  0.38027050  0.96072266  0.60405975    -0.19200
C824        C  0.41600294  0.96784343  0.59683340    -0.07700
C825        C  0.42663967  0.97060573  0.92760329    -0.03800
C826        C  0.40732278  0.96000253  0.89164174    -0.09100
C827        C  0.37118066  0.95345049  0.89549853    -0.16700
H828        H  0.17200577  0.94577203  0.88545704     0.11400
H829        H  0.23230997  0.96989914  0.88877110     0.10700
H830        H  0.25850044  0.89640138  0.98936450     0.10700
H831        H  0.19877253  0.87218697  0.98604024     0.11200
H832        H  0.36911362  0.96419748  0.63600795     0.11200
H833        H  0.43190792  0.97744089  0.62308870     0.11200
H834        H  0.41984856  0.95875755  0.86020689     0.11400
H835        H  0.35629682  0.94651136  0.86715528     0.10200
C836        C  0.80208931  0.89767181  0.93723369    -0.03600
C837        C  0.78220956  0.91844833  0.90837919    -0.09400
C838        C  0.74565409  0.92226818  0.91363376    -0.17100
C839        C  0.72825884  0.90550292  0.94757668     0.25100
C840        C  0.74746856  0.88501066  0.97660587    -0.18700
C841        C  0.78409036  0.88124980  0.97158948    -0.07600
C842        C  0.69074118  0.91009439  0.95262587    -0.14100
C843        C  0.65953419  0.91658786  0.95387570    -0.13800
C844        C  0.62339376  0.92815408  0.95135090     0.25000
C845        C  0.60189730  0.91582918  0.91824218    -0.19200
C846        C  0.56868106  0.93118948  0.91138737    -0.07700
C847        C  0.55711582  0.95918326  0.93734144    -0.03800
C848        C  0.56799995  0.93682002  0.59383994    -0.09100
C849        C  0.60053074  0.92007067  0.60094753    -0.16700
H850        H  0.79417258  0.93243076  0.88200292     0.11400
H851        H  0.73093050  0.93851966  0.89125714     0.10700
H852        H  0.73421320  0.87212201  0.00321522     0.10700
H853        H  0.79855209  0.86551355  0.99470446     0.11200
H854        H  0.61146087  0.89550960  0.89657839     0.11200
H855        H  0.55296699  0.92274829  0.88436755     0.11200
H856        H  0.54913748  0.93942144  0.62011445     0.11400
H857        H  0.60644679  0.90972603  0.63258174     0.10200
C858        C  0.56522562  0.02908807  0.90035440    -0.03600
C859        C  0.58528498  0.02534041  0.58772431    -0.09400
C860        C  0.61247802  0.06614532  0.92612675    -0.17100
C861        C  0.63670211  0.04889821  0.89881055     0.25100
C862        C  0.62484382  0.02279606  0.87084216    -0.18700
C863        C  0.58923282  0.01299855  0.87151715    -0.07600
C864        C  0.67391251  0.05666835  0.90152679    -0.14100
C865        C  0.70473975  0.06353596  0.90666797    -0.13800
C866        C  0.74075001  0.07342034  0.91538915     0.25000
C867        C  0.76936496  0.05534023  0.89637257    -0.19200
C868        C  0.80416349  0.06614228  0.90390797    -0.07700
C869        C  0.81066269  0.09528670  0.93032753    -0.03800
C870        C  0.78177314  0.11251768  0.95033904    -0.09100
C871        C  0.74713494  0.10167274  0.94287720    -0.16700
H872        H  0.57239701  0.01310354  0.61503548     0.11400
H873        H  0.62135395  0.08633318  0.94795027     0.10700
H874        H  0.64329387  0.00925123  0.84958171     0.10700
H875        H  0.58067960  0.99181341  0.85095323     0.11200
H876        H  0.76476744  0.03332015  0.87517470     0.11200
H877        H  0.82580205  0.05257303  0.88776927     0.11200
H878        H  0.78593161  0.13469040  0.97141383     0.11400
H879        H  0.72527048  0.11566873  0.95811534     0.10200
loop_ 
_geom_bond_atom_site_label_1 
_geom_bond_atom_site_label_2 
_geom_bond_distance 
_geom_bond_site_symmetry_2 
_ccdc_geom_bond_type 
C1            C6   1.397       .  A
C1          C588   1.416   1_565  A
C1          C847   1.471       .  S
C2            C3   1.405       .  A
C2          C294   1.418   1_545  A
C2          C272   1.483       .  S
C3            C4   1.401       .  A
C3            H8   1.084       .  S
C4          C298   1.414   1_545  A
C4          C206   1.478       .  S
C5            C6   1.395       .  A
C5          C590   1.414   1_565  A
C5          C825   1.474       .  S
C6            H7   1.084       .  S
C9           C10   1.533       .  S
C9           C15   1.528       .  S
C9           C13   1.541       .  S
C9          C250   1.524       .  S
C10          H17   1.087       .  S
C10          C11   1.365       .  D
C11          C12   1.539       .  S
C11          C41   1.467       .  S
C12          C16   1.544       .  S
C12          C14   1.539       .  S
C12          H18   1.111       .  S
C13          H19   1.082       .  S
C13          C14   1.366       .  D
C14          C21   1.474       .  S
C15          H20   1.086       .  S
C15          C16   1.365       .  D
C16         C184   1.485       .  S
C21          C58   1.461       .  S
C21          N39   1.348       .  A
N22          N39   1.321       .  A
N22          N44   1.321       .  A
N22         Co59   2.082       .  S
C23          C61   1.459       .  S
C23          H68   1.082       .  S
C23         N341   1.343       .  A
H24          C65   1.082       .  S
C25          C29   1.451       .  S
C25          H54   1.082       .  S
C25          N49   1.333       .  A
Co26         N44   2.092       .  S
Co26         N34   2.073   1_655  S
Co26         N66   2.084       .  S
Co26         N42   2.074   1_655  S
Co26        Cl70   2.444       .  S
N27          C65   1.344       .  A
N27          N34   1.321       .  A
N27         Co28   2.087       .  S
Co28         N31   2.095   1_565  S
Co28         N48   2.089       .  S
Co28         N35   2.092   1_565  S
Co28        Cl70   2.463   1_455  S
C29         C100   1.470       .  S
C29          N67   1.353       .  A
N30          N37   1.319       .  A
N30          N60   1.321       .  A
N30         Co63   2.075       .  S
N31          N49   1.320       .  A
N31          N67   1.329       .  A
N32          C61   1.345       .  A
N32         N335   1.321       .  A
H33          C58   1.082       .  S
N34          N55   1.320       .  A
N35          N53   1.320       .  A
N35         N626   1.330       .  A
C36          C64   1.455       .  S
C36         C103   1.472       .  S
C36          N40   1.351       .  A
N37          C52   1.345       .  A
N37         Co59   2.090   1_545  S
C38          C41   1.458       .  S
C38          H72   1.081       .  S
C38         N359   1.343       .  A
N40         N328   1.329       .  A
C41          N62   1.347       .  A
N42          N48   1.321       .  A
N42         N618   1.321       .  A
N43         C655   1.348       .  A
N43          N45   1.320       .  A
N43         Co59   2.099   1_545  S
N44          C58   1.346       .  A
N45         N659   1.321       .  A
N45         Co63   2.073       .  S
H46          C69   1.082       .  S
H47          C64   1.082       .  S
N48         C609   1.343       .  A
N49         Co63   2.068   1_455  S
N50          N66   1.320       .  A
N50         N648   1.321       .  A
N50         Co59   2.074       .  S
C51          C65   1.458       .  S
C51          C91   1.466       .  S
C51          N55   1.346       .  A
C52          C71   1.462       .  S
C52          H56   1.081       .  S
N53         C650   1.333       .  A
N53         Co63   2.073   1_455  S
C57          C69   1.461       .  S
C57          C76   1.473       .  S
C57          N73   1.347       .  A
Co59        Cl70   2.457       .  S
N60          C71   1.347       .  A
C61          C88   1.466       .  S
N62         N343   1.320       .  A
Co63        Cl70   2.436   1_545  S
C64         N346   1.334       .  A
N66         C624   1.343       .  A
C69         N336   1.346       .  A
C71          C79   1.473       .  S
N73         N338   1.321       .  A
C74          C75   1.532       .  S
C74          C80   1.531       .  S
C74          C78   1.544       .  S
C74         C173   1.530       .  S
C75          H82   1.087       .  S
C75          C76   1.365       .  D
C76          C77   1.540       .  S
C77          C81   1.545       .  S
C77          C79   1.536       .  S
C77          H83   1.111       .  S
C78          H84   1.081       .  S
C78          C79   1.368       .  D
C80          H85   1.086       .  S
C80          C81   1.367       .  D
C81         C283   1.488       .  S
C86          C87   1.536       .  S
C86          C92   1.533       .  S
C86          C90   1.541       .  S
C86         C151   1.524       .  S
C87          H94   1.086       .  S
C87          C88   1.365       .  D
C88          C89   1.534       .  S
C89          C93   1.536       .  S
C89          C91   1.533       .  S
C89          H95   1.111       .  S
C90          H96   1.081       .  S
C90          C91   1.365       .  D
C92          H97   1.087       .  S
C92          C93   1.364       .  D
C93         C228   1.476       .  S
C98          C99   1.534       .  S
C98         C104   1.534       .  S
C98         C102   1.531       .  S
C98         C129   1.525       .  S
C99         H106   1.086       .  S
C99         C100   1.367       .  D
C100        C101   1.537       .  S
C101        C105   1.541       .  S
C101        C103   1.542       .  S
C101        H107   1.111       .  S
C102        H108   1.087       .  S
C102        C103   1.365       .  D
C104        H109   1.081       .  S
C104        C105   1.364       .  D
C105        C217   1.476       .  S
C110        C111   1.416   1_455  A
C110        C115   1.396       .  A
C110        C726   1.476       .  S
C111        C112   1.407       .  A
C111        C781   1.487       .  S
C112        C113   1.407       .  A
C112        H117   1.084       .  S
C113        C114   1.417   1_655  A
C113        C748   1.484       .  S
C114        C115   1.399       .  A
C114        C704   1.477       .  S
C115        H116   1.085       .  S
C118        C119   1.403       .  A
C118        C416   1.402       .  A
C118        C407   1.473       .  S
C119        C120   1.394       .  A
C119        H132   1.083       .  S
C120        C121   1.399       .  A
C120        H133   1.083       .  S
C121        C415   1.401       .  A
C121        C124   1.433       .  S
C122        C123   1.399   1_556  A
C122        C707   1.400       .  A
C122        H134   1.083   1_556  S
C123        C704   1.404   1_554  A
C123        H135   1.083       .  S
C124        C125   1.202       .  T
C125        C126   1.434       .  S
C126        C127   1.396       .  A
C126        C131   1.397       .  A
C127        C128   1.396       .  A
C127        H429   1.084       .  S
C128        C129   1.413       .  A
C128        H137   1.076       .  S
C129        C130   1.410       .  A
C130        C131   1.395       .  A
C130        H138   1.084       .  S
C131        H139   1.084       .  S
H136        C713   1.083   1_554  S
C140        C145   1.402       .  A
C140        C434   1.402       .  A
C140        C403   1.473       .  S
C141        C142   1.400       .  A
C141        C726   1.403       .  A
C141        H154   1.083   1_556  S
C142        C729   1.402       .  A
C142        H155   1.083   1_556  S
C143        C144   1.400       .  A
C143        C435   1.399       .  A
C143        C146   1.434       .  S
C144        C145   1.397       .  A
C144        H156   1.083       .  S
C145        H157   1.083       .  S
C146        C147   1.203       .  T
C147        C148   1.434       .  S
C148        C149   1.397       .  A
C148        C153   1.396       .  A
C149        C150   1.397       .  A
C149        H158   1.084       .  S
C150        C151   1.412       .  A
C150        H159   1.076       .  S
C151        C152   1.410       .  A
C152        C153   1.395       .  A
C152        H160   1.083       .  S
C153        H161   1.083       .  S
C162        C167   1.404       .  A
C162        C456   1.405       .  A
C162        C406   1.482       .  S
C163        C164   1.399       .  A
C163        C748   1.405   1_554  A
C163        H176   1.083       .  S
C164        C751   1.401   1_554  A
C164        H177   1.083       .  S
C165        C166   1.402       .  A
C165        C457   1.400       .  A
C165        C168   1.442       .  S
C166        C167   1.401       .  A
C166        H178   1.083       .  S
C167        H179   1.083       .  S
C168        C169   1.207       .  T
C169        C170   1.442       .  S
C170        C171   1.398       .  A
C170        C175   1.399       .  A
C171        C172   1.399       .  A
C171        H180   1.083       .  S
C172        C173   1.412       .  A
C172        H181   1.083       .  S
C173        C174   1.412       .  A
C174        C175   1.399       .  A
C174        H182   1.076       .  S
C175        H183   1.084       .  S
C184        C185   1.407       .  A
C184        C189   1.405       .  A
C185        C186   1.395       .  A
C185        H198   1.083       .  S
C186        C187   1.397       .  A
C186        H199   1.083       .  S
C187        C188   1.403       .  A
C187        C190   1.441       .  S
C188        C189   1.403       .  A
C188        H493   1.084       .  S
C189        H201   1.082       .  S
C190        C191   1.207       .  T
C191        C192   1.441       .  S
C192        C197   1.400       .  A
C192        C486   1.403       .  A
C193        C194   1.399       .  A
C193        C778   1.400   1_554  A
C193        H202   1.084       .  S
C194        C781   1.407   1_554  A
C194        H203   1.083   1_655  S
C195        C196   1.404       .  A
C195        C487   1.403       .  A
C195        C404   1.478       .  S
C196        C197   1.396       .  A
C196        H204   1.084       .  S
C197        H205   1.083       .  S
H200        C774   1.084       .  S
C206        C207   1.405       .  A
C206        C504   1.403       .  A
C207        C208   1.397       .  A
C207        H220   1.083       .  S
C208        C209   1.399       .  A
C208        H221   1.083       .  S
C209        C210   1.402       .  A
C209        C212   1.439       .  S
C210        C504   1.399       .  A
C210        H515   1.083       .  S
C211        C792   1.402       .  A
C211        C796   1.395       .  A
C211        H223   1.083       .  S
C212        C213   1.205       .  T
C213        C214   1.439       .  S
C214        C215   1.398       .  A
C214        C219   1.403       .  A
C215        C216   1.393       .  A
C215        H224   1.084       .  S
C216        C217   1.405       .  A
C216        H225   1.084       .  S
C217        C218   1.403       .  A
C218        C219   1.402       .  A
C218        H226   1.083       .  S
C219        H227   1.083       .  S
H222        C796   1.084       .  S
C228        C229   1.404       .  A
C228        C233   1.405       .  A
C229        C230   1.399       .  A
C229        H242   1.083       .  S
C230        C231   1.401       .  A
C230        H243   1.083       .  S
C231        C232   1.397       .  A
C231        C234   1.434       .  S
C232        C233   1.393       .  A
C232        H244   1.084       .  S
C233        H245   1.083       .  S
C234        C235   1.203       .  T
C235        C236   1.434       .  S
C236        C241   1.401       .  A
C236        C530   1.399       .  A
C237        C238   1.398       .  A
C237        C822   1.401       .  A
C237        H246   1.083   1_556  S
C238        C825   1.403       .  A
C238        H247   1.083       .  S
C239        C240   1.401       .  A
C239        C531   1.404       .  A
C239        C298   1.475       .  S
C240        C241   1.397       .  A
C240        H248   1.083       .  S
C241        H249   1.083       .  S
C250        C251   1.410       .  A
C250        C255   1.412       .  A
C251        C252   1.395       .  A
C251        H264   1.077       .  S
C252        C253   1.397       .  A
C252        H265   1.084       .  S
C253        C254   1.397       .  A
C253        C256   1.435       .  S
C254        C255   1.398       .  A
C254        H266   1.084       .  S
C255        H267   1.083       .  S
C256        C257   1.203       .  T
C257        C258   1.435       .  S
C258        C259   1.401       .  A
C258        C556   1.399       .  A
C259        C260   1.398       .  A
C259        H268   1.083       .  S
C260        C261   1.403       .  A
C260        H269   1.083       .  S
C261        C555   1.403       .  A
C261        C294   1.474       .  S
C262        C263   1.394       .  A
C262        C847   1.403       .  A
C262        H270   1.083       .  S
C263        C844   1.399       .  A
C263        H271   1.083   1_556  S
C272        C277   1.406       .  A
C272        C566   1.403       .  A
C273        C858   1.402       .  A
C273        C860   1.399       .  A
C273        H286   1.083       .  S
C274        C275   1.402       .  A
C274        C566   1.399       .  A
C274        H287   1.083       .  S
C275        C276   1.400       .  A
C275        C278   1.442       .  S
C276        C277   1.399       .  A
C276        H288   1.083       .  S
C277        H289   1.083   1_545  S
C278        C279   1.208       .  T
C279        C280   1.443       .  S
C280        C281   1.402       .  A
C280        C285   1.398       .  A
C281        C282   1.403       .  A
C281        H290   1.083       .  S
C282        C283   1.406       .  A
C282        H291   1.082       .  S
C283        C284   1.408       .  A
C284        C285   1.397       .  A
C284        H292   1.083       .  S
C285        H293   1.084       .  S
C294        C299   1.398       .  A
C295        C587   1.417   1_545  A
C295        C296   1.405       .  A
C295        C565   1.484       .  S
C296        C297   1.404       .  A
C296        H301   1.084       .  S
C297        C591   1.414   1_545  A
C297        C499   1.479       .  S
C298        C299   1.395       .  A
C299        H300   1.084       .  S
C302        C303   1.541       .  S
C302        C308   1.530       .  S
C302        C306   1.534       .  S
C302        C543   1.522       .  S
C303        H310   1.082       .  S
C303        C304   1.364       .  D
C304        C305   1.535       .  S
C304        C334   1.464       .  S
C305        C309   1.541       .  S
C305        C307   1.536       .  S
C305        H311   1.111       .  S
C306        H312   1.087       .  S
C306        C307   1.365       .  D
C307        C314   1.467       .  S
C308        H313   1.086       .  S
C308        C309   1.365       .  D
C309        C477   1.485       .  S
C314        C351   1.458       .  S
C314        N332   1.347       .  A
N315        N332   1.321       .  A
N315        N337   1.321       .  A
N315       Co352   2.076       .  S
C316        C354   1.457       .  S
C316        H361   1.082       .  S
C316        N634   1.343       .  A
H317        C358   1.081       .  S
C318        C322   1.453       .  S
C318        H347   1.082       .  S
C318        N342   1.333       .  A
Co319       N337   2.085   1_455  S
Co319       N327   2.074       .  S
Co319       N359   2.084   1_455  S
Co319       N335   2.072       .  S
Co319      Cl363   2.444   1_455  S
N320        C358   1.343       .  A
N320        N327   1.321       .  A
N320       Co321   2.090       .  S
Co321       N324   2.098   1_565  S
Co321       N341   2.090       .  S
Co321       N328   2.092   1_565  S
Co321      Cl363   2.462   1_455  S
C322        C393   1.474       .  S
C322        N360   1.353       .  A
N323        N330   1.320       .  A
N323        N353   1.321       .  A
N323       Co356   2.075       .  S
N324        N342   1.320       .  A
N324        N360   1.330       .  A
N325        C354   1.346       .  A
N325        N628   1.320       .  A
H326        C351   1.082       .  S
N327        N348   1.321       .  A
N328        N346   1.320       .  A
C329        C357   1.458       .  S
C329        C396   1.476       .  S
C329        N333   1.351       .  A
N330        C345   1.346       .  A
N330       Co352   2.093   1_545  S
C331        C334   1.454       .  S
C331        H365   1.081       .  S
C331        N652   1.340       .  A
N333        N621   1.329       .  A
C334        N355   1.348       .  A
N335        N341   1.321       .  A
N336        N338   1.320       .  A
N336       Co352   2.090   1_545  S
N337        C351   1.343       .  A
N338       Co356   2.077       .  S
H339        C362   1.082       .  S
H340        C357   1.082       .  S
N342       Co356   2.071   1_455  S
N343        N359   1.320       .  A
N343       Co352   2.075       .  S
C344        C358   1.459       .  S
C344        C384   1.468       .  S
C344        N348   1.346       .  A
C345        C364   1.463       .  S
C345        H349   1.081       .  S
N346       Co356   2.075   1_455  S
C350        C362   1.463       .  S
C350        C369   1.473       .  S
C350        N366   1.346       .  A
Co352      Cl363   2.457       .  S
N353        C364   1.347       .  A
C354        C381   1.465       .  S
N355        N636   1.322       .  A
Co356      Cl363   2.436   1_545  S
C357        N639   1.336       .  A
C362        N629   1.348       .  A
C364        C372   1.474       .  S
N366        N631   1.319       .  A
C367        C368   1.531       .  S
C367        C373   1.531       .  S
C367        C371   1.543       .  S
C367        C466   1.531       .  S
C368        H375   1.087       .  S
C368        C369   1.365       .  D
C369        C370   1.540       .  S
C370        C374   1.548       .  S
C370        C372   1.537       .  S
C370        H376   1.110       .  S
C371        H377   1.081       .  S
C371        C372   1.368       .  D
C373        H378   1.086       .  S
C373        C374   1.368       .  D
C374        C576   1.490       .  S
C379        C380   1.532       .  S
C379        C385   1.531       .  S
C379        C383   1.544       .  S
C379        C444   1.523       .  S
C380        H387   1.087       .  S
C380        C381   1.364       .  D
C381        C382   1.536       .  S
C382        C386   1.538       .  S
C382        C384   1.534       .  S
C382        H388   1.111       .  S
C383        H389   1.082       .  S
C383        C384   1.369       .  D
C385        H390   1.087       .  S
C385        C386   1.363       .  D
C386        C521   1.479       .  S
C391        C392   1.540       .  S
C391        C397   1.525       .  S
C391        C395   1.531       .  S
C391        C422   1.525       .  S
C392        H399   1.080       .  S
C392        C393   1.368       .  D
C393        C394   1.539       .  S
C394        C398   1.547       .  S
C394        C396   1.546       .  S
C394        H400   1.111       .  S
C395        H401   1.086       .  S
C395        C396   1.365       .  D
C397        H402   1.087       .  S
C397        C398   1.364       .  D
C398        C510   1.481       .  S
C403        C404   1.413   1_455  A
C403        C408   1.396       .  A
C404        C405   1.403       .  A
C405        C406   1.405       .  A
C405        H410   1.084       .  S
C406        C407   1.416   1_655  A
C407        C408   1.397       .  A
C408        H409   1.085       .  S
C411        C412   1.403       .  A
C411        C709   1.403       .  A
C411        C700   1.476       .  S
C412        C413   1.394       .  A
C412        H425   1.083       .  S
C413        C414   1.399       .  A
C413        H426   1.083       .  S
C414        C708   1.401       .  A
C414        C417   1.435       .  S
C415        C416   1.398       .  A
C415        H427   1.083       .  S
C416        H428   1.083       .  S
C417        C418   1.203       .  T
C418        C419   1.435       .  S
C419        C420   1.396       .  A
C419        C424   1.397       .  A
C420        C421   1.396       .  A
C420        H722   1.083       .  S
C421        C422   1.411       .  A
C421        H430   1.083       .  S
C422        C423   1.412       .  A
C423        C424   1.397       .  A
C423        H431   1.075       .  S
C424        H432   1.085       .  S
C433        C727   1.403       .  A
C433        C438   1.403       .  A
C433        C696   1.476       .  S
C434        C435   1.395       .  A
C434        H447   1.083       .  S
C435        H448   1.084       .  S
C436        C728   1.399       .  A
C436        C437   1.400       .  A
C436        C439   1.434       .  S
C437        C438   1.397       .  A
C437        H449   1.083       .  S
C438        H450   1.083       .  S
C439        C440   1.203       .  T
C440        C441   1.435       .  S
C441        C442   1.399       .  A
C441        C446   1.395       .  A
C442        C443   1.398       .  A
C442        H451   1.084       .  S
C443        C444   1.410       .  A
C443        H452   1.076       .  S
C444        C445   1.411       .  A
C445        C446   1.394       .  A
C445        H453   1.084       .  S
C446        H454   1.083       .  S
C455        C749   1.405       .  A
C455        C460   1.404       .  A
C455        C699   1.482       .  S
C456        C457   1.397       .  A
C456        H469   1.083       .  S
C457        H470   1.084       .  S
C458        C750   1.400       .  A
C458        C459   1.403       .  A
C458        C461   1.442       .  S
C459        C460   1.402       .  A
C459        H471   1.083       .  S
C460        H472   1.083       .  S
C461        C462   1.208       .  T
C462        C463   1.443       .  S
C463        C464   1.398       .  A
C463        C468   1.399       .  A
C464        C465   1.398       .  A
C464        H473   1.083       .  S
C465        C466   1.411       .  A
C465        H474   1.083       .  S
C466        C467   1.412       .  A
C467        C468   1.400       .  A
C467        H475   1.076       .  S
C468        H476   1.084       .  S
C477        C478   1.406       .  A
C477        C482   1.406       .  A
C478        C479   1.394       .  A
C478        H491   1.083       .  S
C479        C480   1.397       .  A
C479        H492   1.083       .  S
C480        C481   1.403       .  A
C480        C483   1.441       .  S
C481        C482   1.403       .  A
C481        H786   1.084       .  S
C482        H494   1.082       .  S
C483        C484   1.207       .  T
C484        C485   1.441       .  S
C485        C779   1.403       .  A
C485        C490   1.399       .  A
C486        C487   1.401       .  A
C486        H495   1.083       .  S
C487        H496   1.083       .  S
C488        C780   1.404       .  A
C488        C489   1.404       .  A
C488        C697   1.480       .  S
C489        C490   1.396       .  A
C489        H497   1.084       .  S
C490        H498   1.083       .  S
C499        C500   1.405       .  A
C499        C797   1.403       .  A
C500        C501   1.399       .  A
C500        H513   1.083       .  S
C501        C502   1.401       .  A
C501        H514   1.083       .  S
C502        C503   1.401       .  A
C502        C505   1.442       .  S
C503        C797   1.398       .  A
C503        H808   1.083       .  S
C504        H516   1.083       .  S
C505        C506   1.208       .  T
C506        C507   1.442       .  S
C507        C508   1.398       .  A
C507        C512   1.403       .  A
C508        C509   1.395       .  A
C508        H517   1.084       .  S
C509        C510   1.406       .  A
C509        H518   1.083       .  S
C510        C511   1.404       .  A
C511        C512   1.404       .  A
C511        H519   1.083       .  S
C512        H520   1.083       .  S
C521        C522   1.404       .  A
C521        C526   1.406       .  A
C522        C523   1.400       .  A
C522        H535   1.082       .  S
C523        C524   1.401       .  A
C523        H536   1.083       .  S
C524        C525   1.397       .  A
C524        C527   1.436       .  S
C525        C526   1.394       .  A
C525        H537   1.084       .  S
C526        H538   1.083       .  S
C527        C528   1.204       .  T
C528        C529   1.436       .  S
C529        C823   1.399       .  A
C529        C534   1.401       .  A
C530        C531   1.396       .  A
C530        H539   1.084       .  S
C531        H540   1.083   1_565  S
C532        C824   1.403       .  A
C532        C533   1.402       .  A
C532        C591   1.474       .  S
C533        C534   1.399       .  A
C533        H541   1.083       .  S
C534        H542   1.083       .  S
C543        C544   1.410       .  A
C543        C548   1.411       .  A
C544        C545   1.395       .  A
C544        H557   1.083       .  S
C545        C546   1.396       .  A
C545        H558   1.084       .  S
C546        C547   1.396       .  A
C546        C549   1.433       .  S
C547        C548   1.395       .  A
C547        H559   1.084       .  S
C548        H560   1.077       .  S
C549        C550   1.202       .  T
C550        C551   1.432       .  S
C551        C552   1.399       .  A
C551        C849   1.400       .  A
C552        C553   1.394       .  A
C552        H561   1.083       .  S
C553        C554   1.402       .  A
C553        H562   1.083       .  S
C554        C848   1.403       .  A
C554        C587   1.473       .  S
C555        C556   1.395       .  A
C555        H563   1.083       .  S
C556        H564   1.083       .  S
C565        C859   1.405       .  A
C565        C570   1.404       .  A
C566        H579   1.083       .  S
C567        C859   1.396       .  A
C567        C568   1.399       .  A
C567        H580   1.084       .  S
C568        C569   1.404       .  A
C568        C571   1.443       .  S
C569        C570   1.404       .  A
C569        H581   1.083       .  S
C570        H582   1.083       .  S
C571        C572   1.208       .  T
C572        C573   1.444       .  S
C573        C574   1.402       .  A
C573        C578   1.398       .  A
C574        C575   1.403       .  A
C574        H583   1.083       .  S
C575        C576   1.407       .  A
C575        H584   1.082       .  S
C576        C577   1.409       .  A
C577        C578   1.397       .  A
C577        H585   1.082       .  S
C578        H586   1.084       .  S
C587        C592   1.398       .  A
C588        C589   1.404       .  A
C588        C858   1.481       .  S
C589        C590   1.401       .  A
C589        H594   1.084       .  S
C590        C792   1.475       .  S
C591        C592   1.395       .  A
C592        H593   1.084       .  S
C595        C596   1.532       .  S
C595        C601   1.534       .  S
C595        C599   1.538       .  S
C595        C836   1.524       .  S
C596        H603   1.087       .  S
C596        C597   1.363       .  D
C597        C598   1.536       .  S
C597        C627   1.466   1_556  S
C598        C602   1.545       .  S
C598        C600   1.541       .  S
C598        H604   1.111       .  S
C599        H605   1.081       .  S
C599        C600   1.364       .  D
C600        C607   1.472       .  S
C601        H606   1.086       .  S
C601        C602   1.367       .  D
C602        C770   1.487       .  S
C607        C644   1.458       .  S
C607        N625   1.349       .  A
N608        N625   1.321       .  A
N608        N630   1.320       .  A
N608       Co645   2.082       .  S
C609        C647   1.459   1_554  S
C609        H654   1.082       .  S
H610        C651   1.082       .  S
C611        C615   1.453       .  S
C611        H640   1.082       .  S
C611        N635   1.333       .  A
Co612       N630   2.086       .  S
Co612       N620   2.064   1_655  S
Co612       N652   2.076       .  S
Co612       N628   2.075   1_655  S
Co612      Cl656   2.439       .  S
N613        C651   1.343       .  A
N613        N620   1.320       .  A
N613       Co614   2.089   1_565  S
Co614       N617   2.091       .  S
Co614       N634   2.083   1_545  S
Co614       N621   2.090       .  S
Co614      Cl656   2.462   1_445  S
C615        C686   1.469       .  S
C615        N653   1.352       .  A
N616        N623   1.320       .  A
N616        N646   1.321       .  A
N616       Co649   2.079       .  S
N617        N635   1.320       .  A
N617        N653   1.328       .  A
N618        C647   1.346   1_554  A
H619        C644   1.081       .  S
N620        N641   1.320       .  A
N621        N639   1.320       .  A
C622        C650   1.454       .  S
C622        C689   1.473   1_554  S
C622        N626   1.352       .  A
N623        C638   1.347       .  A
N623       Co645   2.093   1_545  S
C624        C627   1.457       .  S
C624        H658   1.081       .  S
C627        N648   1.347       .  A
N628        N634   1.321       .  A
N629        N631   1.320       .  A
N629       Co645   2.096   1_545  S
N630        C644   1.345       .  A
N631       Co649   2.072       .  S
H632        C655   1.082       .  S
H633        C650   1.082       .  S
N635       Co649   2.068   1_455  S
N636        N652   1.320       .  A
N636       Co645   2.077       .  S
C637        C651   1.460       .  S
C637        C677   1.465       .  S
C637        N641   1.344       .  A
C638        C657   1.463       .  S
C638        H642   1.081       .  S
N639       Co649   2.082   1_455  S
C643        C655   1.465       .  S
C643        C662   1.477   1_554  S
C643        N659   1.347       .  A
Co645      Cl656   2.460       .  S
N646        C657   1.347       .  A
C647        C674   1.466       .  S
Co649      Cl656   2.434   1_545  S
C657        C665   1.476       .  S
C660        C661   1.533       .  S
C660        C666   1.534       .  S
C660        C664   1.544       .  S
C660        C759   1.535       .  S
C661        H668   1.087   1_556  S
C661        C662   1.368       .  D
C662        C663   1.541       .  S
C663        C667   1.546       .  S
C663        C665   1.537       .  S
C663        H669   1.110       .  S
C664        H670   1.081       .  S
C664        C665   1.366       .  D
C666        H671   1.086       .  S
C666        C667   1.368       .  D
C667        C869   1.488       .  S
C672        C673   1.536       .  S
C672        C678   1.531       .  S
C672        C676   1.542       .  S
C672        C737   1.523       .  S
C673        H680   1.086       .  S
C673        C674   1.365       .  D
C674        C675   1.534       .  S
C675        C679   1.533       .  S
C675        C677   1.532       .  S
C675        H681   1.111       .  S
C676        H682   1.084       .  S
C676        C677   1.368       .  D
C678        H683   1.087       .  S
C678        C679   1.362       .  D
C679        C814   1.473       .  S
C684        C685   1.540       .  S
C684        C690   1.526       .  S
C684        C688   1.530       .  S
C684        C715   1.525       .  S
C685        H692   1.079       .  S
C685        C686   1.366       .  D
C686        C687   1.535       .  S
C687        C691   1.543       .  S
C687        C689   1.542       .  S
C687        H693   1.111       .  S
C688        H694   1.086       .  S
C688        C689   1.366       .  D
C690        H695   1.087       .  S
C690        C691   1.365       .  D
C691        C803   1.476       .  S
C696        C697   1.415   1_455  A
C696        C701   1.396       .  A
C697        C698   1.405       .  A
C698        C699   1.405       .  A
C698        H703   1.084       .  S
C699        C700   1.416   1_655  A
C700        C701   1.397       .  A
C701        H702   1.084       .  S
C704        C705   1.403       .  A
C705        C706   1.394       .  A
C705        H718   1.083       .  S
C706        C707   1.399       .  A
C706        H719   1.083       .  S
C707        C710   1.435       .  S
C708        C709   1.398       .  A
C708        H720   1.083       .  S
C709        H721   1.083       .  S
C710        C711   1.203       .  T
C711        C712   1.435       .  S
C712        C713   1.397       .  A
C712        C717   1.396       .  A
C713        C714   1.398       .  A
C714        C715   1.411       .  A
C714        H723   1.083       .  S
C715        C716   1.412       .  A
C716        C717   1.395       .  A
C716        H724   1.074       .  S
C717        H725   1.085       .  S
C726        C731   1.403       .  A
C727        C728   1.395       .  A
C727        H740   1.083       .  S
C728        H741   1.084       .  S
C729        C730   1.398       .  A
C729        C732   1.435       .  S
C730        C731   1.392       .  A
C730        H742   1.083       .  S
C731        H743   1.083       .  S
C732        C733   1.203       .  T
C733        C734   1.436       .  S
C734        C735   1.399       .  A
C734        C739   1.395       .  A
C735        C736   1.399       .  A
C735        H744   1.084       .  S
C736        C737   1.410       .  A
C736        H745   1.079       .  S
C737        C738   1.411       .  A
C738        C739   1.394       .  A
C738        H746   1.083       .  S
C739        H747   1.084   1_556  S
C748        C753   1.405       .  A
C749        C750   1.397       .  A
C749        H762   1.083       .  S
C750        H763   1.084       .  S
C751        C752   1.403       .  A
C751        C754   1.446       .  S
C752        C753   1.403       .  A
C752        H764   1.083       .  S
C753        H765   1.083       .  S
C754        C755   1.210       .  T
C755        C756   1.446       .  S
C756        C757   1.400       .  A
C756        C761   1.398       .  A
C757        C758   1.402       .  A
C757        H766   1.084   1_556  S
C758        C759   1.412       .  A
C758        H767   1.083       .  S
C759        C760   1.413       .  A
C760        C761   1.399       .  A
C760        H768   1.077       .  S
C761        H769   1.084       .  S
C770        C771   1.406       .  A
C770        C775   1.406       .  A
C771        C772   1.397       .  A
C771        H784   1.083       .  S
C772        C773   1.399       .  A
C772        H785   1.083       .  S
C773        C774   1.403       .  A
C773        C776   1.445       .  S
C774        C775   1.404       .  A
C775        H787   1.082       .  S
C776        C777   1.209       .  T
C777        C778   1.445       .  S
C778        C783   1.403       .  A
C779        C780   1.402       .  A
C779        H788   1.083       .  S
C780        H789   1.083       .  S
C781        C782   1.403       .  A
C782        C783   1.401       .  A
C782        H790   1.083       .  S
C783        H791   1.083       .  S
C792        C793   1.404       .  A
C793        C794   1.400       .  A
C793        H806   1.083       .  S
C794        C795   1.401       .  A
C794        H807   1.083       .  S
C795        C796   1.400       .  A
C795        C798   1.438       .  S
C797        H809   1.083       .  S
C798        C799   1.205       .  T
C799        C800   1.438       .  S
C800        C801   1.397       .  A
C800        C805   1.403       .  A
C801        C802   1.392       .  A
C801        H810   1.084       .  S
C802        C803   1.403       .  A
C802        H811   1.083       .  S
C803        C804   1.405       .  A
C804        C805   1.403       .  A
C804        H812   1.083       .  S
C805        H813   1.083       .  S
C814        C815   1.404       .  A
C814        C819   1.404       .  A
C815        C816   1.400       .  A
C815        H828   1.083       .  S
C816        C817   1.402       .  A
C816        H829   1.083       .  S
C817        C818   1.397       .  A
C817        C820   1.433       .  S
C818        C819   1.392       .  A
C818        H830   1.084       .  S
C819        H831   1.083       .  S
C820        C821   1.202       .  T
C821        C822   1.434       .  S
C822        C827   1.398       .  A
C823        C824   1.395       .  A
C823        H832   1.083       .  S
C824        H833   1.083       .  S
C825        C826   1.402       .  A
C826        C827   1.394       .  A
C826        H834   1.083       .  S
C827        H835   1.083       .  S
C836        C837   1.411       .  A
C836        C841   1.411       .  A
C837        C838   1.395       .  A
C837        H850   1.077       .  S
C838        C839   1.396       .  A
C838        H851   1.084       .  S
C839        C840   1.396       .  A
C839        C842   1.433       .  S
C840        C841   1.396       .  A
C840        H852   1.084   1_556  S
C841        H853   1.083       .  S
C842        C843   1.202       .  T
C843        C844   1.432       .  S
C844        C845   1.400       .  A
C845        C846   1.396       .  A
C845        H854   1.083       .  S
C846        C847   1.401       .  A
C846        H855   1.083       .  S
C848        C849   1.397       .  A
C848        H856   1.083       .  S
C849        H857   1.083       .  S
C858        C863   1.406       .  A
C859        H872   1.083       .  S
C860        C861   1.402       .  A
C860        H873   1.083       .  S
C861        C862   1.401       .  A
C861        C864   1.442       .  S
C862        C863   1.399       .  A
C862        H874   1.083       .  S
C863        H875   1.083   1_545  S
C864        C865   1.208       .  T
C865        C866   1.442       .  S
C866        C867   1.402       .  A
C866        C871   1.399       .  A
C867        C868   1.402       .  A
C867        H876   1.083       .  S
C868        C869   1.406       .  A
C868        H877   1.082       .  S
C869        C870   1.408       .  A
C870        C871   1.397       .  A
C870        H878   1.083       .  S
C871        H879   1.084       .  S
