geometry optimzed in LAMMPS
_audit_creation_date              2020-11-30 
_audit_creation_method            'lammps2cif' 
_symmetry_space_group_name_H-M    'P1' 
_symmetry_Int_Tables_number       1 
_symmetry_cell_setting            triclinic 
loop_ 
_symmetry_equiv_pos_as_xyz 
  x,y,z 
_cell_length_a                    53.56150830709992 
_cell_length_b                    53.82486272523201 
_cell_length_c                    53.76033608637244 
_cell_angle_alpha                 89.88287449185493 
_cell_angle_beta                  89.91509054111668 
_cell_angle_gamma                 89.74567945468257 
loop_ 
_atom_site_label 
_atom_site_type_symbol 
_atom_site_fract_x 
_atom_site_fract_y 
_atom_site_fract_z 
_atom_site_charge 
O1          O  0.19762740  0.13316832  0.15931028    -0.86260
O2          O  0.20661727  0.17360771  0.12905887    -0.83310
C3          C  0.18594756  0.17885076  0.11888756     0.97200
O4          O  0.16862261  0.18883370  0.13143640    -0.83340
O5          O  0.13903287  0.20035875  0.17280029    -0.85980
C6          C  0.12762554  0.18071958  0.17878350     1.01730
O7          O  0.13989089  0.16223296  0.18678082    -0.78750
O8          O  0.18047167  0.13049280  0.19623703    -0.78930
C9          C  0.18822968  0.12022152  0.17643950     1.01680
O10         O  0.22833213  0.15300583  0.19662184    -0.86260
O11         O  0.23393811  0.19496940  0.17013194    -0.83320
C12         C  0.22886415  0.21562659  0.16057435     0.97220
O13         O  0.20766314  0.21961451  0.15107207    -0.83350
O14         O  0.18030526  0.22611011  0.19366132    -0.85950
C15         C  0.17024221  0.22115327  0.21428599     1.01690
O16         O  0.16179160  0.19957828  0.21865889    -0.78770
O17         O  0.20324434  0.16974215  0.22428624    -0.78920
C18         C  0.22420406  0.16085712  0.21824629     1.01660
Cr19       Cr  0.21429250  0.16492272  0.16466237     1.93740
Cr20       Cr  0.17480611  0.20641587  0.16325451     1.93210
Cr21       Cr  0.17243564  0.16640123  0.20426377     1.39100
O22         O  0.18702816  0.17902893  0.17734564    -1.24010
O23         O  0.20603364  0.32398336  0.28253659    -0.86260
O24         O  0.19582365  0.29263421  0.32291121    -0.83310
C25         C  0.18743169  0.27430577  0.33505054     0.97200
O26         O  0.18036889  0.25511626  0.32344171    -0.83340
O27         O  0.13869511  0.26677105  0.29398714    -0.85980
C28         C  0.12661418  0.27653771  0.27631213     1.01730
O29         O  0.13749578  0.28286983  0.25644996    -0.78750
O30         O  0.16794106  0.32357796  0.26765055    -0.78930
C31         C  0.18619158  0.33542951  0.27662243     1.01680
O32         O  0.23204082  0.28349797  0.25898123    -0.86260
O33         O  0.22621658  0.25474405  0.30082300    -0.83320
C34         C  0.22155396  0.23358916  0.29186942     0.97220
O35         O  0.20090047  0.22919069  0.28179513    -0.83350
O36         O  0.15904684  0.23646336  0.25443063    -0.85950
C37         C  0.16889617  0.24072619  0.23343549     1.01690
O38         O  0.17809594  0.26171643  0.22878983    -0.78770
O39         O  0.20506166  0.30338001  0.23561401    -0.78920
C40         C  0.22604315  0.29328128  0.23848862     1.01660
Cr41       Cr  0.21279639  0.28797143  0.29022896     1.93740
Cr42       Cr  0.17076553  0.24922030  0.28765582     1.93210
Cr43       Cr  0.17287838  0.29171045  0.24938877     1.39100
O44         O  0.18526349  0.27654650  0.27602991    -1.24010
O45         O  0.32885881  0.16034795  0.26592877    -0.86260
O46         O  0.28795503  0.12970464  0.25656097    -0.83310
C47         C  0.28252303  0.11878680  0.27674801     0.97200
O48         O  0.27391917  0.13113473  0.29486919    -0.83340
O49         O  0.26370315  0.17288076  0.32435322    -0.85980
C50         C  0.28406081  0.17961388  0.33405159     1.01730
O51         O  0.30145045  0.18859997  0.32108667    -0.78750
O52         O  0.33014557  0.19870437  0.27917197    -0.78930
C53         C  0.34130371  0.17871896  0.27352411     1.01680
O54         O  0.30748756  0.19804617  0.23433268    -0.86260
O55         O  0.26526257  0.16981047  0.22981644    -0.83320
C56         C  0.24460943  0.16054354  0.23602739     0.97220
O57         O  0.24141824  0.15117910  0.25730711    -0.83350
O58         O  0.23540768  0.19306190  0.28376328    -0.85950
C59         C  0.24045531  0.21400721  0.29263848     1.01690
O60         O  0.26174301  0.21830501  0.30166792    -0.78770
O61         O  0.28795220  0.22415203  0.25885196    -0.78920
C62         C  0.29847235  0.21940232  0.23850601     1.01660
Cr63       Cr  0.29638944  0.16525906  0.24880734     1.93740
Cr64       Cr  0.25581932  0.16312405  0.28926464     1.93210
Cr65       Cr  0.29450800  0.20520127  0.28924594     1.39100
O66         O  0.28243235  0.17762721  0.27598672    -1.24010
O67         O  0.26344666  0.32463898  0.17529913    -0.86260
O68         O  0.27217619  0.29517136  0.13270770    -0.83310
C69         C  0.28245137  0.27807501  0.12005016     0.97200
O70         O  0.29042013  0.25846703  0.13047199    -0.83340
O71         O  0.33083186  0.26839696  0.16138613    -0.85980
C72         C  0.34337632  0.27544865  0.17988832     1.01730
O73         O  0.33221243  0.28078984  0.19987833    -0.78750
O74         O  0.30192570  0.32264811  0.18988428    -0.78930
C75         C  0.28353622  0.33512607  0.18178738     1.01680
O76         O  0.23741701  0.28362878  0.19723813    -0.86260
O77         O  0.24248467  0.25678547  0.15395414    -0.83320
C78         C  0.24771389  0.23511394  0.16133065     0.97220
O79         O  0.26883299  0.23002255  0.17018174    -0.83350
O80         O  0.30981522  0.23561209  0.19883456    -0.85950
C81         C  0.29980782  0.23917828  0.21988501     1.01690
O82         O  0.29054645  0.25992663  0.22534033    -0.78770
O83         O  0.26466976  0.30255803  0.22073701    -0.78920
C84         C  0.24351586  0.29310091  0.21778499     1.01660
Cr85       Cr  0.25617238  0.28922609  0.16583556     1.93740
Cr86       Cr  0.29887831  0.25039651  0.16609326     1.93210
Cr87       Cr  0.29658849  0.29044012  0.20654022     1.39100
O88         O  0.28404329  0.27695454  0.17909318    -1.24010
O89         O  0.76041203  0.78261699  0.82321157    -0.86260
O90         O  0.77074367  0.82249190  0.79221165    -0.83310
C91         C  0.78087605  0.83436514  0.77459935     0.97200
O92         O  0.78782767  0.82317675  0.75499958    -0.83340
O93         O  0.82900279  0.79298823  0.76479687    -0.85980
C94         C  0.84142500  0.77573711  0.77483039     1.01730
O95         O  0.83076342  0.75635492  0.78263481    -0.78750
O96         O  0.79931605  0.76966311  0.82257837    -0.78930
C97         C  0.78091965  0.77900662  0.83420547     1.01680
O98         O  0.73547123  0.75846573  0.78269357    -0.86260
O99         O  0.74078157  0.80108746  0.75419173    -0.83320
C100        C  0.74556702  0.79279655  0.73278900     0.97220
O101        O  0.76611955  0.78240935  0.72826713    -0.83350
O102        O  0.80756551  0.75415876  0.73541540    -0.85950
C103        C  0.79868639  0.73301621  0.74049687     1.01690
O104        O  0.79037955  0.72831360  0.76195823    -0.78770
O105        O  0.76266181  0.73609337  0.80350406    -0.78920
C106        C  0.74165060  0.73838092  0.79327148     1.01660
Cr107      Cr  0.75414764  0.78995792  0.78717742     1.93740
Cr108      Cr  0.79649615  0.78739030  0.74820907     1.93210
Cr109      Cr  0.79495686  0.74982228  0.79149906     1.39100
O110        O  0.78208744  0.77593181  0.77572525    -1.24010
O111        O  0.66587085  0.82480827  0.68755900    -0.86260
O112        O  0.63673761  0.78323119  0.70006952    -0.83310
C113        C  0.62486343  0.77582464  0.68118621     0.97200
O114        O  0.63688194  0.76773130  0.66260179    -0.83340
O115        O  0.67722873  0.75797389  0.63083578    -0.85980
C116        C  0.68275666  0.77782681  0.61939798     1.01730
O117        O  0.69185142  0.79604175  0.63107538    -0.78750
O118        O  0.70352643  0.82639491  0.67173729    -0.78930
C119        C  0.68360285  0.83729426  0.67836431     1.01680
O120        O  0.70588814  0.80476490  0.71740828    -0.86260
O121        O  0.67874715  0.76292199  0.72566163    -0.83320
C122        C  0.66865154  0.74229196  0.72138576     0.97220
O123        O  0.65961527  0.73758264  0.70021667    -0.83350
O124        O  0.70114037  0.73170579  0.67087807    -0.85950
C125        C  0.72155391  0.73738699  0.66071553     1.01690
O126        O  0.72444525  0.75840514  0.65073836    -0.78770
O127        O  0.73143781  0.78537509  0.69219039    -0.78920
C128        C  0.72677057  0.79457483  0.71314796     1.01660
Cr129      Cr  0.67255730  0.79294127  0.70537726     1.93740
Cr130      Cr  0.66980173  0.75097189  0.66682449     1.93210
Cr131      Cr  0.71057421  0.79081963  0.66257806     1.39100
O132        O  0.68404826  0.77841407  0.67804071    -1.24010
O133        O  0.79705712  0.63157711  0.68672384    -0.86260
O134        O  0.82794164  0.67190238  0.69777054    -0.83310
C135        C  0.83896541  0.67925162  0.67822539     0.97200
O136        O  0.82642824  0.68859571  0.66059833    -0.83340
O137        O  0.78504662  0.69836943  0.63054234    -0.85980
C138        C  0.77939356  0.67834292  0.61955854     1.01730
O139        O  0.77097846  0.66013127  0.63186901    -0.78750
O140        O  0.75873768  0.63052359  0.67340526    -0.78930
C141        C  0.77846829  0.61916877  0.67953115     1.01680
O142        O  0.75865860  0.65266331  0.71839286    -0.86260
O143        O  0.78762475  0.69330118  0.72569629    -0.83320
C144        C  0.79730787  0.71402205  0.72089893     0.97220
O145        O  0.80517095  0.71891077  0.69922008    -0.83350
O146        O  0.76260893  0.72504955  0.67105185    -0.85950
C147        C  0.74219518  0.71951961  0.66083871     1.01690
O148        O  0.73917415  0.69844348  0.65115104    -0.78770
O149        O  0.73256785  0.67203789  0.69350210    -0.78920
C150        C  0.73754372  0.66256250  0.71432512     1.01660
Cr151      Cr  0.79200574  0.66338851  0.70490122     1.93740
Cr152      Cr  0.79377069  0.70555724  0.66618010     1.93210
Cr153      Cr  0.75268465  0.66605137  0.66351244     1.39100
O154        O  0.77969256  0.67827816  0.67812450    -1.24010
O155        O  0.70325301  0.67371089  0.82440504    -0.86260
O156        O  0.69342273  0.63348536  0.79346047    -0.83310
C157        C  0.68380404  0.62153362  0.77564861     0.97200
O158        O  0.67600219  0.63312502  0.75661469    -0.83340
O159        O  0.63559137  0.66457014  0.76832838    -0.85980
C160        C  0.62364182  0.68336182  0.77599695     1.01730
O161        O  0.63552267  0.70263769  0.78191040    -0.78750
O162        O  0.66517881  0.68932701  0.82324433    -0.78930
C163        C  0.68298983  0.67934158  0.83523046     1.01680
O164        O  0.72999559  0.69712032  0.78389031    -0.86260
O165        O  0.72375703  0.65524147  0.75541831    -0.83320
C166        C  0.71870486  0.66357596  0.73403172     0.97220
O167        O  0.69782548  0.67335038  0.72949086    -0.83350
O168        O  0.65733772  0.70271512  0.73708521    -0.85950
C169        C  0.66771698  0.72343515  0.74108593     1.01690
O170        O  0.67747828  0.72798941  0.76185268    -0.78770
O171        O  0.70350539  0.72031161  0.80440513    -0.78920
C172        C  0.72429723  0.71754966  0.79391976     1.01660
Cr173      Cr  0.71042286  0.66607079  0.78852904     1.93740
Cr174      Cr  0.66774790  0.66915248  0.75015623     1.93210
Cr175      Cr  0.67114766  0.70776514  0.79179577     1.39100
O176        O  0.68297613  0.68067560  0.77700083    -1.24010
O177        O  0.77479938  0.13287447  0.79490943    -0.86260
O178        O  0.76641179  0.17503064  0.82404511    -0.83310
C179        C  0.78695229  0.18209038  0.83319109     0.97200
O180        O  0.80377982  0.19139493  0.81961738    -0.83340
O181        O  0.83176758  0.19929412  0.77643920    -0.85980
C182        C  0.84285935  0.17909631  0.77139486     1.01730
O183        O  0.83020356  0.16043404  0.76477224    -0.78750
O184        O  0.78822898  0.13024358  0.75656506    -0.78930
C185        C  0.78260614  0.11990470  0.77690970     1.01680
O186        O  0.74169821  0.15335929  0.75755162    -0.86260
O187        O  0.73704011  0.19518935  0.78392497    -0.83320
C188        C  0.74235137  0.21641329  0.79188175     0.97220
O189        O  0.76411053  0.22117381  0.79950752    -0.83350
O190        O  0.79004881  0.22493051  0.75556506    -0.85950
C191        C  0.79956223  0.21841735  0.73514835     1.01690
O192        O  0.80856367  0.19692372  0.73231011    -0.78770
O193        O  0.76613224  0.16986185  0.72919510    -0.78920
C194        C  0.74512209  0.16183445  0.73588612     1.01660
Cr195      Cr  0.75727879  0.16514155  0.78918394     1.93740
Cr196      Cr  0.79650410  0.20689929  0.78694252     1.93210
Cr197      Cr  0.79730743  0.16525308  0.74802849     1.39100
O198        O  0.78383618  0.17891943  0.77494970    -1.24010
O199        O  0.83101475  0.29314114  0.68291225    -0.86260
O200        O  0.79104446  0.32442116  0.69308740    -0.83310
C201        C  0.78212937  0.33482078  0.67398192     0.97200
O202        O  0.77235400  0.32157709  0.65737117    -0.83340
O203        O  0.76483306  0.28005531  0.62798441    -0.85980
C204        C  0.78550205  0.27413000  0.61800679     1.01730
O205        O  0.80307086  0.26480517  0.63078301    -0.78750
O206        O  0.83201259  0.25400621  0.67294837    -0.78930
C207        C  0.84330150  0.27407094  0.67684652     1.01680
O208        O  0.81005993  0.25684669  0.71708957    -0.86260
O209        O  0.76984930  0.28591731  0.72312760    -0.83320
C210        C  0.74838704  0.29390823  0.71808018     0.97220
O211        O  0.74265583  0.30049823  0.69620939    -0.83350
O212        O  0.73753462  0.25811357  0.66874191    -0.85950
C213        C  0.74356100  0.23773345  0.65902354     1.01690
O214        O  0.76496897  0.23440146  0.65009906    -0.78770
O215        O  0.79054231  0.22948209  0.69391901    -0.78920
C216        C  0.80003717  0.23578161  0.71438234     1.01660
Cr217      Cr  0.79944338  0.28919715  0.70182421     1.93740
Cr218      Cr  0.75658160  0.28898566  0.66348335     1.93210
Cr219      Cr  0.79676942  0.24796506  0.66287967     1.39100
O220        O  0.78422490  0.27561070  0.67598078    -1.24010
O221        O  0.69818808  0.13357097  0.65986125    -0.86260
O222        O  0.70574686  0.17415762  0.62871147    -0.83310
C223        C  0.68521671  0.17924998  0.61818274     0.97200
O224        O  0.66707727  0.18757734  0.63075503    -0.83340
O225        O  0.63756974  0.19958789  0.67200066    -0.85980
C226        C  0.62706930  0.17971613  0.67859295     1.01730
O227        O  0.63968294  0.16203883  0.68785004    -0.78750
O228        O  0.68129290  0.13131649  0.69722828    -0.78930
C229        C  0.68891406  0.12100077  0.67743848     1.01680
O230        O  0.72883864  0.15502489  0.69626293    -0.86260
O231        O  0.73249739  0.19707222  0.66879732    -0.83320
C232        C  0.72613634  0.21728523  0.65895403     0.97220
O233        O  0.70492759  0.21994235  0.64925200    -0.83350
O234        O  0.67892745  0.22650251  0.69150911    -0.85950
C235        C  0.67047877  0.22169796  0.71276413     1.01690
O236        O  0.66190579  0.20040046  0.71795659    -0.78770
O237        O  0.70367333  0.17129595  0.72409942    -0.78920
C238        C  0.72465388  0.16247895  0.71803122     1.01660
Cr239      Cr  0.71397410  0.16603712  0.66427526     1.93740
Cr240      Cr  0.67303035  0.20602036  0.66207249     1.93210
Cr241      Cr  0.67262354  0.16715522  0.70448528     1.39100
O242        O  0.68634063  0.17941972  0.67688225    -1.24010
O243        O  0.68045744  0.25775569  0.82125032    -0.86260
O244        O  0.63987774  0.26912759  0.79004785    -0.83310
C245        C  0.62787267  0.27626567  0.77107149     0.97200
O246        O  0.63969282  0.28222571  0.75160981    -0.83340
O247        O  0.66886731  0.32354268  0.76329951    -0.85980
C248        C  0.68624210  0.33597768  0.77305751     1.01730
O249        O  0.70648258  0.32566511  0.77967840    -0.78750
O250        O  0.69547105  0.29545303  0.82046954    -0.78930
C251        C  0.68649558  0.27740515  0.83255143     1.01680
O252        O  0.70242638  0.23091356  0.78126019    -0.86260
O253        O  0.66111651  0.23750827  0.75262876    -0.83320
C254        C  0.67106611  0.24115013  0.73162800     0.97220
O255        O  0.68175307  0.26138785  0.72677142    -0.83350
O256        O  0.70839638  0.30400819  0.73357125    -0.85950
C257        C  0.72955247  0.29454148  0.73779212     1.01690
O258        O  0.73436569  0.28492209  0.75860757    -0.78770
O259        O  0.72724398  0.25703705  0.80029743    -0.78920
C260        C  0.72303716  0.23574701  0.79133242     1.01660
Cr261      Cr  0.67203134  0.25105085  0.78557294     1.93740
Cr262      Cr  0.67545649  0.29183341  0.74604202     1.93210
Cr263      Cr  0.71374252  0.28999174  0.78863688     1.39100
O264        O  0.68696178  0.27781491  0.77361502    -1.24010
O265        O  0.19391344  0.82382491  0.79416251    -0.86260
O266        O  0.20373009  0.78243608  0.82394886    -0.83310
C267        C  0.18382059  0.77525974  0.83435649     0.97200
O268        O  0.16634185  0.76605629  0.82157863    -0.83340
O269        O  0.13721526  0.75720602  0.77922141    -0.85980
C270        C  0.12602716  0.77714394  0.77352209     1.01730
O271        O  0.13853753  0.79572079  0.76618170    -0.78750
O272        O  0.18062908  0.82553728  0.75589767    -0.78930
C273        C  0.18629213  0.83641656  0.77583120     1.01680
O274        O  0.22640185  0.80312404  0.75648483    -0.86260
O275        O  0.23212606  0.76166279  0.78390515    -0.83320
C276        C  0.22701717  0.74067947  0.79278416     0.97220
O277        O  0.20533796  0.73594964  0.80072513    -0.83350
O278        O  0.17801785  0.73115982  0.75756873    -0.85950
C279        C  0.16800616  0.73731925  0.73722716     1.01690
O280        O  0.15912916  0.75878271  0.73408304    -0.78770
O281        O  0.20182768  0.78553308  0.72906154    -0.78920
C282        C  0.22277113  0.79420325  0.73508422     1.01660
Cr283      Cr  0.21174437  0.79173329  0.78876413     1.93740
Cr284      Cr  0.17263282  0.74988658  0.78882343     1.93210
Cr285      Cr  0.17102680  0.79054852  0.74864041     1.39100
O286        O  0.18502545  0.77748332  0.77559752    -1.24010
O287        O  0.16401567  0.68863865  0.63297986    -0.86260
O288        O  0.13453480  0.69838299  0.67504389    -0.83310
C289        C  0.12463723  0.67799231  0.68106955     0.97200
O290        O  0.13761159  0.66028661  0.68962337    -0.83340
O291        O  0.17969373  0.63109185  0.69986117    -0.85980
C292        C  0.18558947  0.61990401  0.68006010     1.01730
O293        O  0.19342438  0.63242742  0.66168214    -0.78750
O294        O  0.20213422  0.67378165  0.63084228    -0.78930
C295        C  0.18200832  0.68012347  0.62020510     1.01680
O296        O  0.20159436  0.72062088  0.65288551    -0.86260
O297        O  0.17525407  0.72562509  0.69578076    -0.83320
C298        C  0.16683625  0.71963690  0.71682137     0.97220
O299        O  0.15743603  0.69852799  0.72043932    -0.83350
O300        O  0.19986510  0.67253659  0.72564928    -0.85950
C301        C  0.22066585  0.66312557  0.72043759     1.01690
O302        O  0.22503595  0.65439305  0.69902399    -0.78770
O303        O  0.22978837  0.69639332  0.67006007    -0.78920
C304        C  0.22341143  0.71710024  0.66091895     1.01660
Cr305      Cr  0.16974693  0.70603708  0.66523099     1.93740
Cr306      Cr  0.16961070  0.66644043  0.70652691     1.93210
Cr307      Cr  0.21035672  0.66523694  0.66628664     1.39100
O308        O  0.18311997  0.67909634  0.67913078    -1.24010
O309        O  0.27181005  0.82186942  0.65791513    -0.86260
O310        O  0.26296292  0.78010433  0.62844373    -0.83310
C311        C  0.28368939  0.77437711  0.61874850     0.97200
O312        O  0.30121303  0.76545172  0.63178202    -0.83340
O313        O  0.33000265  0.75541598  0.67415019    -0.85980
C314        C  0.34097850  0.77522960  0.68019086     1.01730
O315        O  0.32812949  0.79358139  0.68751395    -0.78750
O316        O  0.28625666  0.82388168  0.69595218    -0.78930
C317        C  0.28046519  0.83452418  0.67573953     1.01680
O318        O  0.23950901  0.80129139  0.69532633    -0.86260
O319        O  0.23497721  0.75863137  0.66853744    -0.83320
C320        C  0.24123217  0.73765053  0.66013700     0.97220
O321        O  0.26277502  0.73414001  0.65131660    -0.83350
O322        O  0.28838784  0.72941159  0.69407064    -0.85950
C323        C  0.29771998  0.73463966  0.71480665     1.01690
O324        O  0.30639538  0.75603450  0.71903429    -0.78770
O325        O  0.26402669  0.78449257  0.72348874    -0.78920
C326        C  0.24321565  0.79347431  0.71714644     1.01660
Cr327      Cr  0.25457278  0.78943100  0.66350810     1.93740
Cr328      Cr  0.29472057  0.74844470  0.66375053     1.93210
Cr329      Cr  0.29519810  0.78859970  0.70421143     1.39100
O330        O  0.28159957  0.77568712  0.67703622    -1.24010
O331        O  0.28855271  0.69802212  0.82368670    -0.86260
O332        O  0.32907323  0.68692969  0.79265976    -0.83310
C333        C  0.34119926  0.67983877  0.77379570     0.97200
O334        O  0.32955848  0.67422708  0.75415175    -0.83340
O335        O  0.29977924  0.63319764  0.76579378    -0.85980
C336        C  0.28196453  0.62093875  0.77506244     1.01730
O337        O  0.26165330  0.63148005  0.78110975    -0.78750
O338        O  0.27245150  0.66113153  0.82180506    -0.78930
C339        C  0.28079811  0.67871826  0.83469160     1.01680
O340        O  0.26729219  0.72612362  0.78352112    -0.86260
O341        O  0.30820513  0.71913312  0.75482734    -0.83320
C342        C  0.29796877  0.71543448  0.73394847     0.97220
O343        O  0.28761029  0.69509347  0.72917713    -0.83350
O344        O  0.26078191  0.65291078  0.73563374    -0.85950
C345        C  0.23981135  0.66289364  0.73961051     1.01690
O346        O  0.23514926  0.67312264  0.76008169    -0.78770
O347        O  0.24182240  0.70018400  0.80196890    -0.78920
C348        C  0.24637368  0.72141541  0.79300406     1.01660
Cr349      Cr  0.29728108  0.70540733  0.78796999     1.93740
Cr350      Cr  0.29373872  0.66481265  0.74835661     1.93210
Cr351      Cr  0.25491241  0.66722701  0.79017071     1.39100
O352        O  0.28212480  0.67897590  0.77572683    -1.24010
O353        O  0.19427314  0.79373584  0.13092772    -0.86260
O354        O  0.20589158  0.82376197  0.17187802    -0.83310
C355        C  0.18642535  0.83567930  0.17805737     0.97200
O356        O  0.16765359  0.82386867  0.18615054    -0.83340
O357        O  0.13681657  0.78306410  0.19858429    -0.85980
C358        C  0.12497828  0.77628057  0.17947474     1.01730
O359        O  0.13701314  0.76813161  0.16090940    -0.78750
O360        O  0.17802141  0.75644754  0.13018244    -0.78930
C361        C  0.18523188  0.77578486  0.11882335     1.01680
O362        O  0.22459280  0.75462031  0.15152789    -0.86260
O363        O  0.23123182  0.78221953  0.19353867    -0.83320
C364        C  0.22646491  0.79263026  0.21398350     0.97220
O365        O  0.20569731  0.80316955  0.21754787    -0.83350
O366        O  0.17779400  0.76176855  0.22477821    -0.85950
C367        C  0.16792816  0.74111521  0.22005690     1.01690
O368        O  0.15799328  0.73709714  0.19914943    -0.78770
O369        O  0.19933594  0.72920238  0.17087766    -0.78920
C370        C  0.22013654  0.73351674  0.16086283     1.01660
Cr371      Cr  0.21175536  0.78789200  0.16299812     1.93740
Cr372      Cr  0.17265596  0.79192503  0.20448610     1.93210
Cr373      Cr  0.16916676  0.74996497  0.16596801     1.39100
O374        O  0.18430694  0.77677376  0.17757539    -1.24010
O375        O  0.28734528  0.82352354  0.25707642    -0.86260
O376        O  0.32946410  0.79255995  0.26393737    -0.83310
C377        C  0.34212653  0.77367974  0.27009104     0.97200
O378        O  0.33154854  0.75385855  0.27677593    -0.83340
O379        O  0.30270640  0.76332862  0.31995441    -0.85980
C380        C  0.28502605  0.77182754  0.33319063     1.01730
O381        O  0.26417193  0.77749124  0.32340903    -0.78750
O382        O  0.27049384  0.81923859  0.29393419    -0.78930
C383        C  0.27882929  0.83302518  0.27695038     1.01680
O384        O  0.26647710  0.78390293  0.22815678    -0.86260
O385        O  0.30754064  0.75646359  0.23218424    -0.83320
C386        C  0.29876126  0.73501720  0.23565439     0.97220
O387        O  0.29035014  0.72840308  0.25652251    -0.83350
O388        O  0.26485135  0.73220289  0.30035789    -0.85950
C389        C  0.24307912  0.73558524  0.29223513     1.01690
O390        O  0.23670576  0.75591811  0.28270520    -0.78770
O391        O  0.24010376  0.79866511  0.25561127    -0.78920
C392        C  0.24525180  0.79195568  0.23363600     1.01660
Cr393      Cr  0.29665685  0.78826884  0.24780244     1.93740
Cr394      Cr  0.29643636  0.74681872  0.28746614     1.93210
Cr395      Cr  0.25521411  0.78679653  0.28791315     1.39100
O396        O  0.28299744  0.77427334  0.27461051    -1.24010
O397        O  0.13604241  0.69869585  0.27985371    -0.86260
O398        O  0.16524153  0.68773337  0.32149951    -0.83310
C399        C  0.18324840  0.68042661  0.33476914     0.97200
O400        O  0.20336112  0.67422941  0.32416304    -0.83340
O401        O  0.19371804  0.63282006  0.29376962    -0.85980
C402        C  0.18588396  0.62052113  0.27535940     1.01730
O403        O  0.18031810  0.63116003  0.25504862    -0.78750
O404        O  0.13865882  0.66159383  0.26290420    -0.78930
C405        C  0.12587052  0.67894653  0.27237546     1.01680
O406        O  0.17714062  0.72621842  0.26003065    -0.86260
O407        O  0.20374151  0.71935156  0.30189902    -0.83320
C408        C  0.22525943  0.71549696  0.29308980     0.97220
O409        O  0.23132881  0.69474031  0.28428663    -0.83350
O410        O  0.22657603  0.65270432  0.25730681    -0.85950
C411        C  0.22380762  0.66164866  0.23582186     1.01690
O412        O  0.20353017  0.67167288  0.22938092    -0.78770
O413        O  0.16086112  0.69990726  0.23360248    -0.78920
C414        C  0.16849397  0.72145885  0.23888200     1.01660
Cr415      Cr  0.17143657  0.70568210  0.28973660     1.93740
Cr416      Cr  0.21141541  0.66463918  0.28898605     1.93210
Cr417      Cr  0.17182437  0.66694177  0.24749908     1.39100
O418        O  0.18466586  0.67893076  0.27547136    -1.24010
O419        O  0.26280768  0.67175887  0.12957593    -0.86260
O420        O  0.27269336  0.63055561  0.15955772    -0.83310
C421        C  0.28131650  0.61814358  0.17759024     0.97200
O422        O  0.28706416  0.62902159  0.19751440    -0.83340
O423        O  0.32854162  0.65919665  0.18677053    -0.85980
C424        C  0.34100028  0.67763602  0.17904471     1.01730
O425        O  0.32978531  0.69756021  0.17313432    -0.78750
O426        O  0.30019428  0.68842033  0.13130487    -0.78930
C427        C  0.28274221  0.67862787  0.11901789     1.01680
O428        O  0.23453163  0.69299633  0.16971962    -0.86260
O429        O  0.24079005  0.65137182  0.19701501    -0.83320
C430        C  0.24442006  0.66056152  0.21823240     0.97220
O431        O  0.26538509  0.66921465  0.22419881    -0.83350
O432        O  0.30776646  0.69626226  0.21848674    -0.85950
C433        C  0.29842808  0.71750721  0.21525376     1.01690
O434        O  0.28859203  0.72354954  0.19485951    -0.78770
O435        O  0.26104485  0.71851422  0.15224404    -0.78920
C436        C  0.23948999  0.71399539  0.16072759     1.01660
Cr437      Cr  0.25498655  0.66276505  0.16476645     1.93740
Cr438      Cr  0.29614086  0.66426669  0.20443497     1.93210
Cr439      Cr  0.29404050  0.70470213  0.16388404     1.39100
O440        O  0.28188795  0.67707727  0.17746380    -1.24010
O441        O  0.76907747  0.82105967  0.15687457    -0.86260
O442        O  0.76029897  0.77810252  0.12877203    -0.83310
C443        C  0.78039478  0.77225137  0.11781351     0.97200
O444        O  0.79871276  0.76479085  0.13069743    -0.83340
O445        O  0.82982166  0.75800616  0.17206991    -0.85980
C446        C  0.83954756  0.77833461  0.17877283     1.01730
O447        O  0.82636098  0.79570230  0.18764654    -0.78750
O448        O  0.78378842  0.82503642  0.19485305    -0.78930
C449        C  0.77748222  0.83446724  0.17417438     1.01680
O450        O  0.73814035  0.80124994  0.19581445    -0.86260
O451        O  0.73414103  0.75844717  0.17072365    -0.83320
C452        C  0.73978811  0.73756470  0.16204198     0.97220
O453        O  0.76158576  0.73321607  0.15385294    -0.83350
O454        O  0.79105438  0.72984026  0.19571538    -0.85950
C455        C  0.79950517  0.73665480  0.21650691     1.01690
O456        O  0.80624186  0.75879539  0.22000614    -0.78770
O457        O  0.76321677  0.78476505  0.22345598    -0.78920
C458        C  0.74205496  0.79276820  0.21736165     1.01660
Cr459      Cr  0.75290511  0.78877155  0.16396196     1.93740
Cr460      Cr  0.79427318  0.74877558  0.16409358     1.93210
Cr461      Cr  0.79382949  0.79008835  0.20412231     1.39100
O462        O  0.78062348  0.77601026  0.17723020    -1.24010
O463        O  0.80341851  0.68799830  0.32160776    -0.86260
O464        O  0.83288448  0.69794899  0.27933121    -0.83310
C465        C  0.84379786  0.67790431  0.27376380     0.97200
O466        O  0.83138605  0.65968052  0.26567530    -0.83340
O467        O  0.78939078  0.62998056  0.25540128    -0.85980
C468        C  0.78219228  0.61867268  0.27472243     1.01730
O469        O  0.77485246  0.63125764  0.29322488    -0.78750
O470        O  0.76549648  0.67305359  0.32344157    -0.78930
C471        C  0.78523711  0.67986549  0.33432821     1.01680
O472        O  0.76563885  0.71918571  0.30120567    -0.86260
O473        O  0.79208730  0.72468087  0.25818398    -0.83320
C474        C  0.80087975  0.71883349  0.23720815     0.97220
O475        O  0.81048911  0.69763860  0.23379344    -0.83350
O476        O  0.76857828  0.67059249  0.22868576    -0.85950
C477        C  0.74787559  0.66101911  0.23397857     1.01690
O478        O  0.74356385  0.65264944  0.25553969    -0.78770
O479        O  0.73807156  0.69481554  0.28368641    -0.78920
C480        C  0.74402167  0.71542712  0.29299451     1.01660
Cr481      Cr  0.79767935  0.70512164  0.28904442     1.93740
Cr482      Cr  0.79904418  0.66529070  0.24826599     1.93210
Cr483      Cr  0.75781166  0.66397361  0.28810834     1.39100
O484        O  0.78495921  0.67796546  0.27533510    -1.24010
O485        O  0.69559485  0.81926433  0.29489962    -0.86260
O486        O  0.70460396  0.77831192  0.32523999    -0.83310
C487        C  0.68423288  0.77266175  0.33578185     0.97200
O488        O  0.66653262  0.76336089  0.32347129    -0.83340
O489        O  0.63726821  0.75265968  0.28192176    -0.85980
C490        C  0.62611701  0.77246562  0.27593512     1.01730
O491        O  0.63813696  0.79068198  0.26741146    -0.78750
O492        O  0.67815926  0.82192962  0.25798034    -0.78930
C493        C  0.68543352  0.83196769  0.27796170     1.01680
O494        O  0.72648953  0.79869218  0.25751933    -0.86260
O495        O  0.73179094  0.75632197  0.28448089    -0.83320
C496        C  0.72603590  0.73565394  0.29371074     0.97220
O497        O  0.70493973  0.73231332  0.30342923    -0.83350
O498        O  0.67848979  0.72662366  0.26123205    -0.85950
C499        C  0.66898043  0.73158698  0.24044608     1.01690
O500        O  0.66015807  0.75301000  0.23585800    -0.78770
O501        O  0.70113900  0.78282487  0.22978022    -0.78920
C502        C  0.72200381  0.79173087  0.23563873     1.01660
Cr503      Cr  0.71234442  0.78703231  0.28966762     1.93740
Cr504      Cr  0.67265104  0.74614647  0.29140892     1.93210
Cr505      Cr  0.67052147  0.78612590  0.25006230     1.39100
O506        O  0.68502110  0.77337472  0.27713549    -1.24010
O507        O  0.67764862  0.69589722  0.13137529    -0.86260
O508        O  0.63792049  0.68402439  0.16312733    -0.83310
C509        C  0.62629986  0.67450601  0.18126786     0.97200
O510        O  0.63765612  0.66888025  0.20115832    -0.83340
O511        O  0.66905055  0.62902880  0.19009233    -0.85980
C512        C  0.68677382  0.61727999  0.17995540     1.01730
O513        O  0.70640583  0.62831930  0.17288171    -0.78750
O514        O  0.69502702  0.65883059  0.13247872    -0.78930
C515        C  0.68492432  0.67633278  0.12045927     1.01680
O516        O  0.69975621  0.72286395  0.17183514    -0.86260
O517        O  0.65858569  0.71575677  0.20063175    -0.83320
C518        C  0.66876827  0.71207165  0.22150330     0.97220
O519        O  0.67920935  0.69165514  0.22629840    -0.83350
O520        O  0.70768385  0.65034216  0.21952497    -0.85950
C521        C  0.72853149  0.66018527  0.21491526     1.01690
O522        O  0.73283616  0.66982626  0.19408343    -0.78770
O523        O  0.72518443  0.69725700  0.15266854    -0.78920
C524        C  0.72063766  0.71826301  0.16203786     1.01660
Cr525      Cr  0.66964987  0.70241531  0.16750610     1.93740
Cr526      Cr  0.67413585  0.66113554  0.20696417     1.93210
Cr527      Cr  0.71256165  0.66425815  0.16425389     1.39100
O528        O  0.68517674  0.67563660  0.17926322    -1.24010
O529        O  0.79985353  0.12935869  0.18544242    -0.86260
O530        O  0.83109867  0.16944182  0.19526818    -0.83310
C531        C  0.84155500  0.17775056  0.17579830     0.97200
O532        O  0.82878070  0.18830298  0.15905613    -0.83340
O533        O  0.78727319  0.19772297  0.12907079    -0.85980
C534        C  0.78163287  0.17803614  0.11748751     1.01730
O535        O  0.77408749  0.15928180  0.12963358    -0.78750
O536        O  0.76184780  0.12906371  0.17116060    -0.78930
C537        C  0.78124322  0.11738425  0.17757429     1.01680
O538        O  0.76186937  0.15113333  0.21708458    -0.86260
O539        O  0.79097016  0.19179588  0.22373680    -0.83320
C540        C  0.79968276  0.21299401  0.21900286     0.97220
O541        O  0.80791853  0.21800232  0.19758433    -0.83350
O542        O  0.76522295  0.22328216  0.17031049    -0.85950
C543        C  0.74514543  0.21766216  0.15972095     1.01690
O544        O  0.74235411  0.19678952  0.14966167    -0.78770
O545        O  0.73560542  0.16980723  0.19177453    -0.78920
C546        C  0.74048621  0.16025727  0.21262849     1.01660
Cr547      Cr  0.79516929  0.16159943  0.20315321     1.93740
Cr548      Cr  0.79629041  0.20447298  0.16482766     1.93210
Cr549      Cr  0.75585125  0.16448720  0.16163988     1.39100
O550        O  0.78276314  0.17665873  0.17643039    -1.24010
O551        O  0.70249967  0.16878791  0.32195895    -0.86260
O552        O  0.69375226  0.12873129  0.29050759    -0.83310
C553        C  0.68566676  0.11643626  0.27225795     0.97200
O554        O  0.67927907  0.12783952  0.25260139    -0.83340
O555        O  0.63721200  0.15731403  0.26341749    -0.85980
C556        C  0.62463364  0.17496989  0.27264236     1.01730
O557        O  0.63521806  0.19508737  0.27854425    -0.78750
O558        O  0.66464391  0.18462282  0.32028125    -0.78930
C559        C  0.68235481  0.17517504  0.33265763     1.01680
O560        O  0.73035617  0.19223832  0.28265810    -0.86260
O561        O  0.72533856  0.15107508  0.25317033    -0.83320
C562        C  0.72102244  0.16018185  0.23186505     0.97220
O563        O  0.70010226  0.16962386  0.22687226    -0.83350
O564        O  0.65777458  0.19678451  0.23301933    -0.85950
C565        C  0.66747911  0.21777668  0.23721171     1.01690
O566        O  0.67654394  0.22248457  0.25823884    -0.78770
O567        O  0.70256484  0.21606605  0.30086175    -0.78920
C568        C  0.72415949  0.21273501  0.29218169     1.01660
Cr569      Cr  0.71075410  0.16126504  0.28621068     1.93740
Cr570      Cr  0.66957425  0.16366017  0.24631540     1.93210
Cr571      Cr  0.67055963  0.20229308  0.28831846     1.39100
O572        O  0.68347834  0.17550704  0.27385650    -1.24010
O573        O  0.76127948  0.27676925  0.32407245    -0.86260
O574        O  0.76758795  0.31843268  0.29398520    -0.83310
C575        C  0.77738024  0.33202939  0.27753255     0.97200
O576        O  0.78630077  0.32220767  0.25792363    -0.83340
O577        O  0.82767206  0.29213246  0.26753661    -0.85980
C578        C  0.84060795  0.27404273  0.27513192     1.01730
O579        O  0.83018461  0.25364674  0.28024084    -0.78750
O580        O  0.80006587  0.26321874  0.32173740    -0.78930
C581        C  0.78210973  0.27185785  0.33437721     1.01680
O582        O  0.73525384  0.25376028  0.28269771    -0.86260
O583        O  0.73882812  0.29652453  0.25515602    -0.83320
C584        C  0.74478578  0.29033678  0.23320635     0.97220
O585        O  0.76625881  0.28217281  0.22839739    -0.83350
O586        O  0.80778118  0.25380708  0.23472402    -0.85950
C587        C  0.79929478  0.23209816  0.23861273     1.01690
O588        O  0.78983603  0.22651982  0.25928522    -0.78770
O589        O  0.76302591  0.23076731  0.30177517    -0.78920
C590        C  0.74168537  0.23340526  0.29229991     1.01660
Cr591      Cr  0.75305646  0.28531611  0.28809312     1.93740
Cr592      Cr  0.79590532  0.28659516  0.24942832     1.93210
Cr593      Cr  0.79481226  0.24591210  0.28972006     1.39100
O594        O  0.78132919  0.27290013  0.27585401    -1.24010
O595        O  0.64056469  0.26270391  0.15696809    -0.86260
O596        O  0.68245942  0.25372296  0.12750205    -0.83310
C597        C  0.68714941  0.27388507  0.11623167     0.97200
O598        O  0.69406102  0.29256160  0.12878785    -0.83340
O599        O  0.70332096  0.32329934  0.17026591    -0.85980
C600        C  0.68311885  0.33345618  0.17715151     1.01730
O601        O  0.66570707  0.32027744  0.18587716    -0.78750
O602        O  0.63746268  0.27794317  0.19490165    -0.78930
C603        C  0.62768503  0.27156001  0.17450954     1.01680
O604        O  0.66081131  0.23248488  0.19591095    -0.86260
O605        O  0.70419810  0.22860428  0.16920613    -0.83320
C606        C  0.72458113  0.23505278  0.15963165     0.97220
O607        O  0.72734090  0.25625102  0.15000395    -0.83350
O608        O  0.73215892  0.28366377  0.19174026    -0.85950
C609        C  0.72635026  0.29171484  0.21298244     1.01690
O610        O  0.70473490  0.30027713  0.21707665    -0.78770
O611        O  0.67840470  0.25757199  0.22256632    -0.78920
C612        C  0.66879420  0.23688513  0.21758917     1.01660
Cr613      Cr  0.67294554  0.24664896  0.16326402     1.93740
Cr614      Cr  0.71200686  0.28812761  0.16121579     1.93210
Cr615      Cr  0.67249400  0.28799494  0.20281905     1.39100
O616        O  0.68560848  0.27447580  0.17562137    -1.24010
O617        O  0.68190040  0.45531213  0.15635183    -0.86260
O618        O  0.66775704  0.43885274  0.11032636    -0.83310
C619        C  0.65328692  0.43483505  0.09245010     0.97200
O620        O  0.63562397  0.44962408  0.08740136    -0.83340
O621        O  0.60067067  0.44324823  0.12382336    -0.85980
C622        C  0.59068392  0.44332419  0.14497545     1.01730
O623        O  0.59785694  0.45829601  0.16162977    -0.78750
O624        O  0.64610236  0.44518170  0.17254241    -0.78930
C625        C  0.66854170  0.43971200  0.16786817     1.01680
O626        O  0.67687348  0.50595303  0.13770377    -0.86260
O627        O  0.66849274  0.48844024  0.09057455    -0.83320
C628        C  0.65115190  0.50245874  0.08279351     0.97220
O629        O  0.63012409  0.50196700  0.09311536    -0.83350
O630        O  0.59201145  0.49537030  0.12610280    -0.85950
C631        C  0.59490862  0.51163734  0.14275462     1.01690
O632        O  0.61254269  0.50968257  0.15821260    -0.78770
O633        O  0.65988578  0.49821793  0.17389906    -0.78920
C634        C  0.67090948  0.51305944  0.15922481     1.01660
Cr635      Cr  0.67150288  0.47231021  0.12460031     1.93740
Cr636      Cr  0.61642193  0.47267623  0.10938721     1.93210
Cr637      Cr  0.63005369  0.47752197  0.16446213     1.39100
O638        O  0.63923929  0.47411329  0.13281046    -1.24010
O639        O  0.45216132  0.63946860  0.17179997    -0.86260
O640        O  0.46366955  0.59130119  0.16082086    -0.83310
C641        C  0.44737041  0.58567992  0.14482844     0.97200
O642        O  0.44701153  0.59608805  0.12382482    -0.83340
O643        O  0.45643520  0.62961896  0.08594869    -0.85980
C644        C  0.44295694  0.64856548  0.08987617     1.01730
O645        O  0.44697732  0.66225360  0.10843777    -0.78750
O646        O  0.46304483  0.67487674  0.15547434    -0.78930
C647        C  0.44725238  0.66194285  0.16734589     1.01680
O648        O  0.50576336  0.65140052  0.17364601    -0.86260
O649        O  0.51524566  0.60390957  0.15739410    -0.83320
C650        C  0.51611249  0.58600300  0.14228328     0.97220
O651        O  0.49917646  0.58348887  0.12607508    -0.83350
O652        O  0.50843632  0.62067982  0.09269288    -0.85950
C653        C  0.51085223  0.64189812  0.08325066     1.01690
O654        O  0.49769597  0.65992715  0.09084839    -0.78770
O655        O  0.51480269  0.66780394  0.13761327    -0.78920
C656        C  0.52134215  0.66180111  0.15926635     1.01660
Cr657      Cr  0.48393511  0.62253431  0.16378356     1.93740
Cr658      Cr  0.47789261  0.60919199  0.10890314     1.93210
Cr659      Cr  0.48063545  0.66398947  0.12402549     1.39100
O660        O  0.48080484  0.63189301  0.13216713    -1.24010
O661        O  0.51694847  0.31483721  0.17061010    -0.86260
O662        O  0.50057220  0.36171755  0.16280056    -0.83310
C663        C  0.51420594  0.36972996  0.14534290     0.97200
O664        O  0.51284525  0.36052233  0.12383582    -0.83340
O665        O  0.50428027  0.32564287  0.08658822    -0.85980
C666        C  0.51819979  0.30652382  0.08791332     1.01730
O667        O  0.51688194  0.29223060  0.10639900    -0.78750
O668        O  0.50741809  0.27888980  0.15447049    -0.78930
C669        C  0.52326424  0.29332421  0.16422144     1.01680
O670        O  0.46553052  0.29758066  0.17771514    -0.86260
O671        O  0.45023577  0.34457433  0.16426979    -0.83320
C672        C  0.44676104  0.36306806  0.15034865     0.97220
O673        O  0.46051067  0.36677305  0.13145866    -0.83350
O674        O  0.45253550  0.32962313  0.09729809    -0.85950
C675        C  0.45031040  0.30832991  0.08790623     1.01690
O676        O  0.46521905  0.29126144  0.09422044    -0.78770
O677        O  0.45389660  0.28242116  0.14223228    -0.78920
C678        C  0.44941145  0.28631892  0.16477177     1.01660
Cr679      Cr  0.48339952  0.32870134  0.16652954     1.93740
Cr680      Cr  0.48273716  0.34383637  0.11149729     1.93210
Cr681      Cr  0.48574348  0.28853146  0.12542856     1.39100
O682        O  0.48415601  0.32047006  0.13433974    -1.24010
O683        O  0.28596960  0.49863728  0.15219213    -0.86260
O684        O  0.30300375  0.51137518  0.10509841    -0.83310
C685        C  0.31805590  0.51285573  0.08701605     0.97200
O686        O  0.33434734  0.49620844  0.08381995    -0.83340
O687        O  0.36712882  0.50575120  0.12136093    -0.85980
C688        C  0.37591790  0.50773761  0.14282950     1.01730
O689        O  0.36930456  0.49316396  0.16008739    -0.78750
O690        O  0.32159596  0.50654995  0.16943172    -0.78930
C691        C  0.29946584  0.51285699  0.16512545     1.01680
O692        O  0.28897875  0.44644717  0.13766640    -0.86260
O693        O  0.30062311  0.45969344  0.09004352    -0.83320
C694        C  0.31766897  0.44471257  0.08332422     0.97220
O695        O  0.33898529  0.44521568  0.09329126    -0.83350
O696        O  0.37670856  0.45406469  0.12764392    -0.85950
C697        C  0.37358175  0.43971682  0.14601328     1.01690
O698        O  0.35490080  0.44208589  0.16007174    -0.78770
O699        O  0.30678937  0.45422760  0.17348344    -0.78920
C700        C  0.29467249  0.43972727  0.15943093     1.01660
Cr701      Cr  0.29694555  0.47885423  0.12218871     1.93740
Cr702      Cr  0.35246811  0.47526453  0.10844782     1.93210
Cr703      Cr  0.33715690  0.47410433  0.16340523     1.39100
O704        O  0.32884461  0.47573273  0.13136056    -1.24010
O705        O  0.51720726  0.28495934  0.80828898    -0.86260
O706        O  0.50446032  0.29573814  0.85586283    -0.83310
C707        C  0.51695486  0.31441031  0.86308608     0.97200
O708        O  0.51330986  0.33569883  0.85408377    -0.83340
O709        O  0.50171664  0.37081799  0.81984584    -0.85980
C710        C  0.51807419  0.36953149  0.80304430     1.01730
O711        O  0.51870157  0.35057432  0.78910864    -0.78750
O712        O  0.50787293  0.30207717  0.77288543    -0.78930
C713        C  0.52261109  0.28919843  0.78596321     1.01680
O714        O  0.46392462  0.27963664  0.79455672    -0.86260
O715        O  0.45222368  0.29243431  0.84217947    -0.83320
C716        C  0.44893885  0.30692132  0.86018387     0.97220
O717        O  0.46222941  0.32599565  0.86263702    -0.83350
O718        O  0.45043774  0.35743769  0.82328102    -0.85950
C719        C  0.45020965  0.36763325  0.80208255     1.01690
O720        O  0.46704681  0.36268391  0.78644610    -0.78770
O721        O  0.45547379  0.31500728  0.77670760    -0.78920
C722        C  0.44912680  0.29315355  0.78184053     1.01660
Cr723      Cr  0.48456265  0.29051519  0.82426764     1.93740
Cr724      Cr  0.48201491  0.34566115  0.83818642     1.93210
Cr725      Cr  0.48728069  0.33146023  0.78367615     1.39100
O726        O  0.48483636  0.32242004  0.81547296    -1.24010
O727        O  0.32143080  0.28288937  0.94497963    -0.86260
O728        O  0.36982521  0.29607012  0.95212146    -0.83310
C729        C  0.37690882  0.31475948  0.93927330     0.97200
O730        O  0.36797722  0.33612945  0.94352690    -0.83340
O731        O  0.33301676  0.37132527  0.95952667    -0.85980
C732        C  0.31846220  0.36858024  0.94162029     1.01730
O733        O  0.30407820  0.35005496  0.94184197    -0.78750
O734        O  0.28659317  0.30287614  0.95225340    -0.78930
C735        C  0.29980365  0.28923335  0.93830853     1.01680
O736        O  0.31347604  0.28029559  0.00026347    -0.86260
O737        O  0.36191992  0.29350372  0.00532829    -0.83320
C738        C  0.37988315  0.30836208  0.00668611     0.97220
O739        O  0.38098470  0.32662014  0.99225006    -0.83350
O740        O  0.34108969  0.35707506  0.00845672    -0.85950
C741        C  0.32001316  0.36755104  0.01001958     1.01690
O742        O  0.30274294  0.36204255  0.99489243    -0.78770
O743        O  0.29132046  0.31449420  0.00573758    -0.78920
C744        C  0.29949590  0.29400595  0.01379648     1.01660
Cr745      Cr  0.34045984  0.29045077  0.97556130     1.93740
Cr746      Cr  0.35380425  0.34578294  0.97594002     1.93210
Cr747      Cr  0.29867770  0.33127713  0.97369123     1.39100
O748        O  0.33095589  0.32217664  0.97506996    -1.24010
O749        O  0.67976093  0.30363517  0.95227291    -0.86260
O750        O  0.66267533  0.35128846  0.94306816    -0.83310
C751        C  0.64835920  0.36998644  0.94274210     0.97200
O752        O  0.63323913  0.37303202  0.96054370    -0.83340
O753        O  0.60001203  0.33765350  0.94505501    -0.85980
C754        C  0.59058863  0.31680558  0.94083919     1.01730
O755        O  0.59641742  0.29794192  0.95403473    -0.78750
O756        O  0.64431656  0.28674429  0.94269730    -0.78930
C757        C  0.66673848  0.29087578  0.93742779     1.01680
O758        O  0.67548663  0.31387280  0.00551933    -0.86260
O759        O  0.66362235  0.36153430  0.99685976    -0.83320
C760        C  0.64720513  0.36474075  0.01362971     0.97220
O761        O  0.62563106  0.35628495  0.01032802    -0.83350
O762        O  0.58751221  0.32562104  0.99529486    -0.85950
C763        C  0.59061496  0.30705167  0.00944177     1.01690
O764        O  0.60945966  0.29336012  0.00676706    -0.78770
O765        O  0.65702820  0.27920411  0.99563468    -0.78920
C766        C  0.67048481  0.29161267  0.01061840     1.01660
Cr767      Cr  0.66820099  0.33186279  0.97436308     1.93740
Cr768      Cr  0.61332242  0.34642356  0.97768289     1.93210
Cr769      Cr  0.62763226  0.29149290  0.97482099     1.39100
O770        O  0.63642787  0.32307087  0.97566808    -1.24010
O771        O  0.64497206  0.44753794  0.78086624    -0.86260
O772        O  0.59765905  0.46332437  0.78819764    -0.83310
C773        C  0.59029707  0.44892732  0.80531535     0.97200
O774        O  0.59884103  0.45081507  0.82704264    -0.83340
O775        O  0.63121768  0.46145569  0.86560119    -0.85980
C776        C  0.64813993  0.44514213  0.86390354     1.01730
O777        O  0.66378538  0.44641670  0.84636096    -0.78750
O778        O  0.68043159  0.45586452  0.79907345    -0.78930
C779        C  0.66623189  0.44063484  0.78804718     1.01680
O780        O  0.66177322  0.49930143  0.77492814    -0.86260
O781        O  0.61464452  0.51426294  0.78833364    -0.83320
C782        C  0.59567587  0.51758819  0.80176530     0.97220
O783        O  0.59049005  0.50245930  0.81895416    -0.83350
O784        O  0.62663994  0.51270062  0.85340764    -0.85950
C785        C  0.64748418  0.51334141  0.86411963     1.01690
O786        O  0.66483177  0.49835724  0.85837383    -0.78770
O787        O  0.67747470  0.50968874  0.81070139    -0.78920
C788        C  0.67309133  0.51498838  0.78828325     1.01660
Cr789      Cr  0.63058542  0.48106803  0.78527041     1.93740
Cr790      Cr  0.61367490  0.48168390  0.83955145     1.93210
Cr791      Cr  0.66954597  0.47780481  0.82754912     1.39100
O792        O  0.63795827  0.48009675  0.81749213    -1.24010
O793        O  0.68001317  0.64781792  0.00057887    -0.86260
O794        O  0.66224459  0.60092895  0.01078209    -0.83310
C795        C  0.64772450  0.58254209  0.01096825     0.97200
O796        O  0.63102271  0.58120074  0.99451052    -0.83340
O797        O  0.59832607  0.61861823  0.00721675    -0.85980
C798        C  0.58890850  0.63989305  0.00987544     1.01730
O799        O  0.59675909  0.65813806  0.99710051    -0.78750
O800        O  0.64484939  0.66628791  0.00953238    -0.78930
C801        C  0.66630494  0.65942496  0.01587599     1.01680
O802        O  0.67554502  0.63545118  0.94704830    -0.86260
O803        O  0.66352603  0.58868725  0.95859694    -0.83320
C804        C  0.64655744  0.58362296  0.94309413     0.97220
O805        O  0.62533803  0.59388625  0.94430304    -0.83350
O806        O  0.58801592  0.62878355  0.95632749    -0.85950
C807        C  0.59053412  0.64856339  0.94370305     1.01690
O808        O  0.61003255  0.66119598  0.94575760    -0.78770
O809        O  0.65828811  0.67137858  0.95569720    -0.78920
C810        C  0.66911330  0.65690185  0.94033635     1.01660
Cr811      Cr  0.66809224  0.61942331  0.97918719     1.93740
Cr812      Cr  0.61246975  0.60742739  0.97561901     1.93210
Cr813      Cr  0.62861156  0.66197126  0.97713164     1.39100
O814        O  0.63636081  0.62969102  0.97709907    -1.24010
O815        O  0.46044393  0.67905573  0.80079854    -0.86260
O816        O  0.44830939  0.66094256  0.84789806    -0.83310
C817        C  0.44776214  0.64627450  0.86628784     0.97200
O818        O  0.46568143  0.63116298  0.86916051    -0.83340
O819        O  0.45681993  0.59650295  0.83320563    -0.85980
C820        C  0.45438855  0.58776958  0.81165351     1.01730
O821        O  0.46719064  0.59608992  0.79359030    -0.78750
O822        O  0.45153110  0.64339566  0.78420982    -0.78930
C823        C  0.44605179  0.66584115  0.78778236     1.01680
O824        O  0.51270541  0.67633851  0.81474886    -0.86260
O825        O  0.49987394  0.66497569  0.86266361    -0.83320
C826        C  0.51684214  0.64950200  0.86819054     0.97220
O827        O  0.51794132  0.62874446  0.85748276    -0.83350
O828        O  0.50903853  0.59067053  0.82422124    -0.85950
C829        C  0.52260481  0.59480403  0.80540712     1.01690
O830        O  0.51842318  0.61320194  0.79153955    -0.78770
O831        O  0.50289029  0.66013493  0.77895178    -0.78920
C832        C  0.51796407  0.67243862  0.79221030     1.01660
Cr833      Cr  0.48053744  0.66813304  0.83064545     1.93740
Cr834      Cr  0.48721659  0.61352990  0.84427922     1.93210
Cr835      Cr  0.48492225  0.62891156  0.78937083     1.39100
O836        O  0.48416639  0.63673234  0.82134461    -1.24010
O837        O  0.28140311  0.65358653  0.95594608    -0.86260
O838        O  0.30161234  0.60848596  0.94178727    -0.83310
C839        C  0.31744001  0.59122171  0.94004001     0.97200
O840        O  0.33395975  0.58846894  0.95668990    -0.83340
O841        O  0.36433450  0.62728323  0.94695373    -0.85980
C842        C  0.37266475  0.64885955  0.94446595     1.01730
O843        O  0.36449591  0.66648688  0.95802085    -0.78750
O844        O  0.31544947  0.67308528  0.94563891    -0.78930
C845        C  0.29348680  0.66664486  0.94055940     1.01680
O846        O  0.28756028  0.63834532  0.00686104    -0.86260
O847        O  0.30191409  0.59164970  0.99294837    -0.83320
C848        C  0.31875123  0.58772215  0.00905687     0.97220
O849        O  0.33760241  0.60142857  0.00903012    -0.83350
O850        O  0.37379375  0.63526400  0.99802269    -0.85950
C851        C  0.36902511  0.65254592  0.01311326     1.01690
O852        O  0.34971123  0.66567752  0.01044079    -0.78770
O853        O  0.30120459  0.67556514  0.99862960    -0.78920
C854        C  0.29043693  0.66052370  0.01339768     1.01660
Cr855      Cr  0.29513454  0.62408701  0.97447670     1.93740
Cr856      Cr  0.35062338  0.61453322  0.97770046     1.93210
Cr857      Cr  0.33204573  0.66810177  0.97799413     1.39100
O858        O  0.32599233  0.63577506  0.97647466    -1.24010
O859        O  0.32462019  0.51028594  0.78234874    -0.86260
O860        O  0.37279730  0.49773451  0.79108962    -0.83310
C861        C  0.38079961  0.51094103  0.80882699     0.97200
O862        O  0.37165045  0.50906834  0.83032631    -0.83340
O863        O  0.33789000  0.49875166  0.86810930    -0.85980
C864        C  0.32036331  0.51424710  0.86546885     1.01730
O865        O  0.30514118  0.51220690  0.84767139    -0.78750
O866        O  0.28942258  0.50083163  0.80040129    -0.78930
C867        C  0.30308542  0.51647837  0.78929728     1.01680
O868        O  0.31146679  0.45631049  0.77800279    -0.86260
O869        O  0.35979933  0.44647130  0.79122496    -0.83320
C870        C  0.37840432  0.44457310  0.80540441     0.97220
O871        O  0.38106385  0.45860621  0.82384244    -0.83350
O872        O  0.34358429  0.44777135  0.85705115    -0.85950
C873        C  0.32249868  0.44627915  0.86730947     1.01690
O874        O  0.30507013  0.46100231  0.86139152    -0.78770
O875        O  0.29432619  0.44778845  0.81395688    -0.78920
C876        C  0.30018179  0.44113399  0.79226797     1.01660
Cr877      Cr  0.34103625  0.47784750  0.78794766     1.93740
Cr878      Cr  0.35651071  0.47858564  0.84301033     1.93210
Cr879      Cr  0.30079751  0.48036627  0.82971084     1.39100
O880        O  0.33285243  0.47900631  0.82018340    -1.24010
O881        O  0.66045628  0.00328193  0.67220513    -0.86260
O882        O  0.61093947  0.01241656  0.66132513    -0.83310
C883        C  0.59104522  0.01252236  0.64877163     0.97200
O884        O  0.58780917  0.99642723  0.63210597    -0.83340
O885        O  0.62318847  0.00746885  0.59691516    -0.85980
C886        C  0.64255917  0.00785742  0.58372918     1.01730
O887        O  0.66036977  0.99298064  0.58880020    -0.78750
O888        O  0.67608559  0.00887285  0.63475313    -0.78930
C889        C  0.67202909  0.01676584  0.65643911     1.01680
O890        O  0.64795966  0.94935521  0.67265477    -0.86260
O891        O  0.59866147  0.96003288  0.66478820    -0.83320
C892        C  0.59145960  0.94513955  0.64790344     0.97220
O893        O  0.60115439  0.94578252  0.62678480    -0.83350
O894        O  0.62982881  0.95588707  0.58677804    -0.85950
C895        C  0.64640550  0.93958804  0.59042440     1.01690
O896        O  0.66192708  0.94229208  0.60771247    -0.78770
O897        O  0.68178289  0.95806761  0.65196716    -0.78920
C898        C  0.66962902  0.94334710  0.66578039     1.01660
Cr899      Cr  0.63041184  0.98104459  0.66566342     1.93740
Cr900      Cr  0.61232490  0.97662191  0.61221697     1.93210
Cr901      Cr  0.66798376  0.97573328  0.62183660     1.39100
O902        O  0.63699021  0.97807580  0.63342825    -1.24010
O903        O  0.64189499  0.78402444  0.50708216    -0.86260
O904        O  0.59452611  0.79322532  0.49335126    -0.83310
C905        C  0.58771345  0.81044134  0.50804797     0.97200
O906        O  0.59519821  0.83225964  0.50482398    -0.83340
O907        O  0.62860565  0.86922979  0.49735970    -0.85980
C908        C  0.64453836  0.86526495  0.51425900     1.01730
O909        O  0.65923727  0.84700308  0.51297569    -0.78750
O910        O  0.67757533  0.80118683  0.49968763    -0.78930
C911        C  0.66381044  0.78833715  0.51382772     1.01680
O912        O  0.65814314  0.78133325  0.45472121    -0.86260
O913        O  0.61139271  0.79387850  0.44146076    -0.83320
C914        C  0.59347922  0.80836255  0.43728062     0.97220
O915        O  0.58879333  0.82627082  0.45180521    -0.83350
O916        O  0.62665705  0.86016915  0.44512784    -0.85950
C917        C  0.64646829  0.87245143  0.44744685     1.01690
O918        O  0.66299615  0.86509776  0.46275675    -0.78770
O919        O  0.67576356  0.81724613  0.44841093    -0.78920
C920        C  0.67045888  0.79585706  0.44071344     1.01660
Cr921      Cr  0.62726292  0.79038493  0.47432360     1.93740
Cr922      Cr  0.61147918  0.84515442  0.47478578     1.93210
Cr923      Cr  0.66668415  0.83169538  0.48055743     1.39100
O924        O  0.63509493  0.82234358  0.47639721    -1.24010
O925        O  0.51492189  0.81487610  0.67222781    -0.86260
O926        O  0.50143067  0.86307023  0.66414507    -0.83310
C927        C  0.51565270  0.87020654  0.64670361     0.97200
O928        O  0.51382509  0.86101781  0.62527612    -0.83340
O929        O  0.50259408  0.82885152  0.58730801    -0.85980
C930        C  0.51757600  0.81068597  0.58946923     1.01730
O931        O  0.51602492  0.79615425  0.60785671    -0.78750
O932        O  0.50399154  0.77985427  0.65522272    -0.78930
C933        C  0.51964412  0.79246329  0.66746556     1.01680
O934        O  0.46250766  0.80078217  0.67800939    -0.86260
O935        O  0.44963303  0.84832007  0.66487789    -0.83320
C936        C  0.44664444  0.86702495  0.65110156     0.97220
O937        O  0.46155916  0.87126569  0.63330071    -0.83350
O938        O  0.45063112  0.83534575  0.59889737    -0.85950
C939        C  0.44960382  0.81464090  0.58814353     1.01690
O940        O  0.46421128  0.79713477  0.59431646    -0.78770
O941        O  0.45139510  0.78599091  0.64200943    -0.78920
C942        C  0.44667271  0.78956652  0.66466494     1.01660
Cr943      Cr  0.48222540  0.83101650  0.66753627     1.93740
Cr944      Cr  0.48223077  0.84734681  0.61293918     1.93210
Cr945      Cr  0.48382307  0.79198322  0.62582612     1.39100
O946        O  0.48280825  0.82348436  0.63540221    -1.24010
O947        O  0.66298437  0.95107634  0.28366174    -0.86260
O948        O  0.61451131  0.94025788  0.29548019    -0.83310
C949        C  0.59519401  0.93929291  0.30885281     0.97200
O950        O  0.59042627  0.95665581  0.32391622    -0.83340
O951        O  0.62578936  0.94905105  0.36141384    -0.85980
C952        C  0.64613463  0.94923540  0.37328738     1.01730
O953        O  0.66362635  0.96348997  0.36642981    -0.78750
O954        O  0.67729546  0.94489537  0.32124694    -0.78930
C955        C  0.67290243  0.93683832  0.29970451     1.01680
O956        O  0.64833671  0.00388129  0.28194494    -0.86260
O957        O  0.60022946  0.99189803  0.28911735    -0.83320
C958        C  0.59378365  0.00901452  0.30397397     0.97220
O959        O  0.60097966  0.00852979  0.32622462    -0.83350
O960        O  0.63081653  0.00047969  0.36684132    -0.85950
C961        C  0.64775299  0.01627707  0.36349355     1.01690
O962        O  0.66372842  0.01324863  0.34642353    -0.78770
O963        O  0.68279953  0.99621691  0.30168175    -0.78920
C964        C  0.67003991  0.01040996  0.28769620     1.01660
Cr965      Cr  0.63228095  0.97200997  0.28973539     1.93740
Cr966      Cr  0.61373438  0.97845829  0.34295193     1.93210
Cr967      Cr  0.66983676  0.97923181  0.33280438     1.39100
O968        O  0.63863624  0.97641128  0.32185800    -1.24010
O969        O  0.30950937  0.78020998  0.45438553    -0.86260
O970        O  0.35763274  0.79101580  0.44346332    -0.83310
C971        C  0.37722840  0.80356212  0.44168167     0.97200
O972        O  0.37993009  0.82325657  0.45425793    -0.83340
O973        O  0.34300018  0.85926915  0.44379716    -0.85980
C974        C  0.32213936  0.87032720  0.44387276     1.01730
O975        O  0.30505247  0.86375435  0.45875891    -0.78750
O976        O  0.29322161  0.81644925  0.44518987    -0.78930
C977        C  0.29889667  0.79462646  0.43874535     1.01680
O978        O  0.32441246  0.78502912  0.50800960    -0.86260
O979        O  0.37220171  0.79258598  0.49452188    -0.83320
C980        C  0.37989514  0.81064311  0.50751236     0.97220
O981        O  0.37046900  0.83183866  0.50506700    -0.83350
O982        O  0.33812716  0.86972560  0.49488525    -0.85950
C983        C  0.32177149  0.86668732  0.51155915     1.01690
O984        O  0.30647730  0.84899009  0.50990050    -0.78770
O985        O  0.28905634  0.80267377  0.49854585    -0.78920
C986        C  0.30294833  0.79182967  0.51429285     1.01660
Cr987      Cr  0.33983775  0.78947539  0.47517462     1.93740
Cr988      Cr  0.35607391  0.84420913  0.47436811     1.93210
Cr989      Cr  0.30052855  0.83186224  0.47784758     1.39100
O990        O  0.33220874  0.82183592  0.47549174    -1.24010
O991        O  0.28789569  0.00632049  0.63589687    -0.86260
O992        O  0.30528878  0.99373336  0.59103526    -0.83310
C993        C  0.32209895  0.00981313  0.58676814     0.97200
O994        O  0.34292569  0.00814019  0.59760180    -0.83340
O995        O  0.37735670  0.99789751  0.63450811    -0.85980
C996        C  0.37245799  0.01409463  0.65083263     1.01730
O997        O  0.35253364  0.01252503  0.66314925    -0.78750
O998        O  0.30387484  0.00224052  0.67298149    -0.78930
C999        C  0.29161179  0.01494503  0.65718148     1.01680
O1000       O  0.28438044  0.95483947  0.65125107    -0.86260
O1001       O  0.30609801  0.94166938  0.60739424    -0.83320
C1002       C  0.32158140  0.94026650  0.58990058     0.97220
O1003       O  0.33769561  0.95707671  0.58728845    -0.83350
O1004       O  0.36657502  0.94602639  0.62841897    -0.85950
C1005       C  0.37261907  0.94348754  0.65095086     1.01690
O1006       O  0.36591444  0.95966650  0.66685607    -0.78770
O1007       O  0.31767618  0.94874968  0.67317943    -0.78920
C1008       C  0.29684566  0.94119301  0.66581063     1.01660
Cr1009     Cr  0.29814434  0.97428891  0.62243130     1.93740
Cr1010     Cr  0.35432269  0.97729539  0.61360945     1.93210
Cr1011     Cr  0.33429361  0.98065737  0.66678214     1.39100
O1012       O  0.32883355  0.97776724  0.63439650    -1.24010
O1013       O  0.45545083  0.81035860  0.27537338    -0.86260
O1014       O  0.46531007  0.85768403  0.28953669    -0.83310
C1015       C  0.45034530  0.86389673  0.30696070     0.97200
O1016       O  0.45217801  0.85453533  0.32851277    -0.83340
O1017       O  0.46632789  0.82316725  0.36733723    -0.85980
C1018       C  0.45008065  0.80651644  0.36574651     1.01730
O1019       O  0.44989412  0.79236471  0.34708370    -0.78750
O1020       O  0.45834058  0.77664343  0.29863871    -0.78930
C1021       C  0.44713579  0.78966501  0.28237832     1.01680
O1022       O  0.50823395  0.79777620  0.27544255    -0.86260
O1023       O  0.51910043  0.84398651  0.29191146    -0.83320
C1024       C  0.51969979  0.86269422  0.30581596     0.97220
O1025       O  0.50175777  0.86647422  0.32018572    -0.83350
O1026       O  0.51660235  0.82833531  0.35233235    -0.85950
C1027       C  0.51951878  0.80665683  0.36098021     1.01690
O1028       O  0.50318160  0.79015009  0.35684209    -0.78770
O1029       O  0.51125181  0.77686782  0.30993870    -0.78920
C1030       C  0.52001613  0.78273415  0.28920597     1.01660
Cr1031     Cr  0.48676250  0.82664845  0.28546964     1.93740
Cr1032     Cr  0.48417691  0.84115555  0.34030699     1.93210
Cr1033     Cr  0.48063817  0.78634957  0.32702389     1.39100
O1034       O  0.48333315  0.81778141  0.31736431    -1.24010
O1035       O  0.28868519  0.94618777  0.31601403    -0.86260
O1036       O  0.30070645  0.96119440  0.36294689    -0.83310
C1037       C  0.31817837  0.94670666  0.36992895     0.97200
O1038       O  0.33890068  0.94657808  0.35870622    -0.83340
O1039       O  0.37590658  0.95679918  0.32474498    -0.85980
C1040       C  0.37357272  0.94006812  0.30870565     1.01730
O1041       O  0.35464428  0.94060174  0.29480926    -0.78750
O1042       O  0.30682746  0.95169347  0.27986984    -0.78930
C1043       C  0.29469954  0.93809358  0.29479259     1.01680
O1044       O  0.28528822  0.99815460  0.29939142    -0.86260
O1045       O  0.30209835  0.01261695  0.34542820    -0.83320
C1046       C  0.31680238  0.01420098  0.36365404     0.97220
O1047       O  0.33223438  0.99703825  0.36748312    -0.83350
O1048       O  0.36440526  0.00801408  0.32893343    -0.85950
C1049       C  0.37371129  0.00874627  0.30741786     1.01690
O1050       O  0.36805159  0.99254247  0.29133978    -0.78770
O1051       O  0.32056572  0.00441084  0.28068812    -0.78920
C1052       C  0.29908571  0.01199819  0.28621542     1.01660
Cr1053     Cr  0.29621818  0.97928339  0.32997746     1.93740
Cr1054     Cr  0.35121396  0.97704659  0.34320319     1.93210
Cr1055     Cr  0.33650589  0.97248253  0.28884305     1.39100
O1056       O  0.32785496  0.97602469  0.32056455    -1.24010
O1057       O  0.46296860  0.15817700  0.67718477    -0.86260
O1058       O  0.44835781  0.11104848  0.66392619    -0.83310
C1059       C  0.44614802  0.09144124  0.65139845     0.97200
O1060       O  0.46172550  0.08654995  0.63426574    -0.83340
O1061       O  0.44940448  0.12135534  0.60024878    -0.85980
C1062       C  0.44686225  0.14147314  0.58882137     1.01730
O1063       O  0.46084217  0.15981011  0.59360775    -0.78750
O1064       O  0.45134982  0.17259542  0.64131780    -0.78930
C1065       C  0.44698247  0.16949218  0.66401490     1.01680
O1066       O  0.51479334  0.14189604  0.67074945    -0.86260
O1067       O  0.50002692  0.09453551  0.66327451    -0.83320
C1068       C  0.51474034  0.08721027  0.64626521     0.97220
O1069       O  0.51338768  0.09606677  0.62457539    -0.83350
O1070       O  0.50094748  0.12805097  0.58522762    -0.85950
C1071       C  0.51425962  0.14762501  0.58507761     1.01690
O1072       O  0.51298048  0.16225186  0.60320530    -0.78770
O1073       O  0.50612781  0.17678898  0.65117120    -0.78920
C1074       C  0.52140061  0.16293909  0.66306555     1.01660
Cr1075     Cr  0.48157416  0.12720610  0.66648582     1.93740
Cr1076     Cr  0.48160205  0.10990479  0.61254998     1.93210
Cr1077     Cr  0.48272499  0.16570483  0.62361393     1.39100
O1078       O  0.48246310  0.13434615  0.63413673    -1.24010
O1079       O  0.29076759  0.13613922  0.44454682    -0.86260
O1080       O  0.30083984  0.08904746  0.45965143    -0.83310
C1081       C  0.31869488  0.08354055  0.44511293     0.97200
O1082       O  0.33938377  0.09425933  0.44730535    -0.83340
O1083       O  0.37667766  0.12655273  0.45992740    -0.85980
C1084       C  0.37489677  0.14426738  0.44448074     1.01730
O1085       O  0.35600242  0.15824893  0.44514341    -0.78750
O1086       O  0.30758292  0.17210850  0.45354945    -0.78930
C1087       C  0.29715928  0.15766092  0.43807702     1.01680
O1088       O  0.28310728  0.15220902  0.49603468    -0.86260
O1089       O  0.29863881  0.10561493  0.51091688    -0.83320
C1090       C  0.31293855  0.08717722  0.51353517     0.97220
O1091       O  0.33012454  0.08302007  0.49800509    -0.83350
O1092       O  0.36154418  0.11996217  0.51065602    -0.85950
C1093       C  0.37224109  0.14050122  0.51239187     1.01690
O1094       O  0.36688748  0.15817163  0.49763388    -0.78770
O1095       O  0.31818255  0.16908734  0.50736656    -0.78920
C1096       C  0.29557589  0.16458789  0.51170464     1.01660
Cr1097     Cr  0.29539103  0.12166554  0.47780494     1.93740
Cr1098     Cr  0.35031923  0.10763094  0.47881654     1.93210
Cr1099     Cr  0.33617134  0.16235701  0.47607224     1.39100
O1100       O  0.32726764  0.13066685  0.47742565    -1.24010
O1101       O  0.68123316  0.15091919  0.49848005    -0.86260
O1102       O  0.66014884  0.10541254  0.51114723    -0.83310
C1103       C  0.64435029  0.08807633  0.51152884     0.97200
O1104       O  0.62782199  0.08697880  0.49486597    -0.83340
O1105       O  0.59769067  0.12682034  0.50666700    -0.85980
C1106       C  0.59010322  0.14888434  0.50872863     1.01730
O1107       O  0.59881061  0.16602101  0.49480359    -0.78750
O1108       O  0.64768566  0.17231813  0.50722823    -0.78930
C1109       C  0.66920818  0.16492263  0.51314527     1.01680
O1110       O  0.67587708  0.13687032  0.44660953    -0.86260
O1111       O  0.66028931  0.09089205  0.45952154    -0.83320
C1112       C  0.64355083  0.08788467  0.44322193     0.97220
O1113       O  0.62439202  0.10137382  0.44395701    -0.83350
O1114       O  0.58882083  0.13597823  0.45573645    -0.85950
C1115       C  0.59456780  0.15191040  0.43961588     1.01690
O1116       O  0.61398827  0.16466673  0.44212799    -0.78770
O1117       O  0.66215732  0.17419881  0.45406047    -0.78920
C1118       C  0.67290972  0.15891857  0.43949637     1.01660
Cr1119     Cr  0.66738227  0.12226219  0.47893970     1.93740
Cr1120     Cr  0.61156137  0.11422536  0.47542167     1.93210
Cr1121     Cr  0.63124964  0.16719169  0.47480038     1.39100
O1122       O  0.63674448  0.13475001  0.47682950    -1.24010
O1123       O  0.46135305  0.17078533  0.30128877    -0.86260
O1124       O  0.44987914  0.15149214  0.34797053    -0.83310
C1125       C  0.44929183  0.13660108  0.36614221     0.97200
O1126       O  0.46544617  0.11926057  0.36760505    -0.83340
O1127       O  0.45588942  0.08721697  0.32968159    -0.85980
C1128       C  0.45213406  0.08031357  0.30768459     1.01730
O1129       O  0.46548986  0.08832941  0.28987555    -0.78750
O1130       O  0.45086526  0.13627230  0.28350291    -0.78930
C1131       C  0.44591329  0.15851149  0.28859680     1.01680
O1132       O  0.51327928  0.16569672  0.31459419    -0.86260
O1133       O  0.50153058  0.15308202  0.36138324    -0.83320
C1134       C  0.51888430  0.13769349  0.36562878     0.97220
O1135       O  0.51816099  0.11667013  0.35526980    -0.83350
O1136       O  0.50847257  0.08059476  0.31927894    -0.85950
C1137       C  0.52155995  0.08537599  0.30009703     1.01690
O1138       O  0.51717461  0.10439415  0.28728069    -0.78770
O1139       O  0.50355469  0.15198552  0.27794146    -0.78920
C1140       C  0.51885901  0.16304076  0.29213631     1.01660
Cr1141     Cr  0.48154776  0.15800568  0.33025012     1.93740
Cr1142     Cr  0.48690868  0.10266379  0.34132214     1.93210
Cr1143     Cr  0.48416833  0.12087519  0.28702842     1.39100
O1144       O  0.48414368  0.12701551  0.31951198    -1.24010
O1145       O  0.95171851  0.28372430  0.63728174    -0.86260
O1146       O  0.96573648  0.29435589  0.58945874    -0.83310
C1147       C  0.95153510  0.31188724  0.58231356     0.97200
O1148       O  0.95240901  0.33286762  0.59259849    -0.83340
O1149       O  0.96217145  0.36866621  0.62783268    -0.85980
C1150       C  0.94699384  0.36499752  0.64558702     1.01730
O1151       O  0.94944592  0.34633394  0.65961724    -0.78750
O1152       O  0.96292601  0.29861209  0.67326074    -0.78930
C1153       C  0.94742208  0.28684890  0.66008582     1.01680
O1154       O  0.00349126  0.27765023  0.65199672    -0.86260
O1155       O  0.01715341  0.29361975  0.60554986    -0.83320
C1156       C  0.02016301  0.30851579  0.58775866     0.97220
O1157       O  0.00482109  0.32601869  0.58390928    -0.83350
O1158       O  0.01472979  0.35763027  0.62153124    -0.85950
C1159       C  0.01646677  0.36719011  0.64272621     1.01690
O1160       O  0.00144010  0.36108529  0.65985259    -0.78770
O1161       O  0.01470861  0.31298467  0.66818710    -0.78920
C1162       C  0.01903743  0.29034620  0.66426665     1.01660
Cr1163     Cr  0.98434407  0.28951776  0.62184550     1.93740
Cr1164     Cr  0.98341970  0.34463464  0.60823751     1.93210
Cr1165     Cr  0.98213976  0.32901973  0.66295866     1.39100
O1166       O  0.98304118  0.32108704  0.63095128    -1.24010
O1167       O  0.78914301  0.30461316  0.49883963    -0.86260
O1168       O  0.80589587  0.35131665  0.51141498    -0.83310
C1169       C  0.82155633  0.36876677  0.51314416     0.97200
O1170       O  0.83802321  0.37173197  0.49667656    -0.83340
O1171       O  0.87161316  0.33329834  0.50257564    -0.85980
C1172       C  0.88049439  0.31162950  0.50310125     1.01730
O1173       O  0.87212856  0.29498674  0.48880800    -0.78750
O1174       O  0.82514864  0.28668546  0.50549376    -0.78930
C1175       C  0.80388941  0.29300166  0.51323015     1.01680
O1176       O  0.79028074  0.32056133  0.44586243    -0.86260
O1177       O  0.80192752  0.36769743  0.46119491    -0.83320
C1178       C  0.81846292  0.37508948  0.44616111     0.97220
O1179       O  0.83931919  0.36430398  0.44505178    -0.83350
O1180       O  0.87665303  0.32943476  0.45062700    -0.85950
C1181       C  0.87210802  0.31237373  0.43532717     1.01690
O1182       O  0.85396626  0.29783064  0.43856712    -0.78770
O1183       O  0.80685199  0.28425393  0.45357461    -0.78920
C1184       C  0.79539075  0.29876251  0.43881886     1.01660
Cr1185     Cr  0.79897316  0.33491138  0.47895673     1.93740
Cr1186     Cr  0.85449211  0.34784710  0.47380733     1.93210
Cr1187     Cr  0.83856358  0.29320225  0.47183591     1.39100
O1188       O  0.83072968  0.32535821  0.47488762    -1.24010
O1189       O  0.78398759  0.50096362  0.65153058    -0.86260
O1190       O  0.80443452  0.51362117  0.60603864    -0.83310
C1191       C  0.81966486  0.51463922  0.58818414     0.97200
O1192       O  0.83695688  0.49870994  0.58752480    -0.83340
O1193       O  0.86521822  0.51163578  0.62795380    -0.85980
C1194       C  0.87076784  0.51478183  0.65052552     1.01730
O1195       O  0.86528384  0.49825689  0.66659674    -0.78750
O1196       O  0.81688612  0.50775989  0.67428949    -0.78930
C1197       C  0.79546856  0.51420534  0.66726036     1.01680
O1198       O  0.78980852  0.44877541  0.63739970    -0.86260
O1199       O  0.80639054  0.46166531  0.59165792    -0.83320
C1200       C  0.82396537  0.44612947  0.58831340     0.97220
O1201       O  0.84332663  0.44782648  0.60134155    -0.83350
O1202       O  0.87833468  0.46099058  0.63604428    -0.85950
C1203       C  0.87326391  0.44353957  0.65084310     1.01690
O1204       O  0.85330657  0.44451508  0.66322857    -0.78770
O1205       O  0.80455791  0.45500149  0.67454458    -0.78920
C1206       C  0.79262980  0.44149141  0.65943586     1.01660
Cr1207     Cr  0.79821839  0.48120380  0.62287008     1.93740
Cr1208     Cr  0.85416326  0.47977228  0.61466470     1.93210
Cr1209     Cr  0.83450814  0.47646759  0.66746586     1.39100
O1210       O  0.82879827  0.47945579  0.63521534    -1.24010
O1211       O  0.00787305  0.28077013  0.29779281    -0.86260
O1212       O  0.01797381  0.29506755  0.34492248    -0.83310
C1213       C  0.01933124  0.30874977  0.36371828     0.97200
O1214       O  0.00469100  0.32704019  0.36582116    -0.83340
O1215       O  0.01737701  0.35912437  0.32788557    -0.85980
C1216       C  0.01993902  0.36754544  0.30612749     1.01730
O1217       O  0.00378743  0.36260805  0.28948296    -0.78750
O1218       O  0.01250742  0.31522141  0.27706297    -0.78930
C1219       C  0.02068518  0.29437878  0.28345220     1.01680
O1220       O  0.95470158  0.28397070  0.31035688    -0.86260
O1221       O  0.96480300  0.29574877  0.35698509    -0.83320
C1222       C  0.94952850  0.31317334  0.36176513     0.97220
O1223       O  0.95389998  0.33488973  0.35419568    -0.83350
O1224       O  0.96587999  0.37223989  0.32176315    -0.85950
C1225       C  0.94935009  0.36945155  0.30528149     1.01690
O1226       O  0.95033709  0.35072912  0.29147267    -0.78770
O1227       O  0.95936335  0.30378284  0.27550742    -0.78920
C1228       C  0.94670487  0.28938656  0.28921199     1.01660
Cr1229     Cr  0.98630961  0.29135593  0.32651873     1.93740
Cr1230     Cr  0.98547767  0.34648203  0.34058924     1.93210
Cr1231     Cr  0.98166175  0.33218384  0.28578668     1.39100
O1232       O  0.98462712  0.32317973  0.31751884    -1.24010
O1233       O  0.78321232  0.65821285  0.45575430    -0.86260
O1234       O  0.79745423  0.61076393  0.44260902    -0.83310
C1235       C  0.81174931  0.59221198  0.44037371     0.97200
O1236       O  0.82744046  0.58786896  0.45719132    -0.83340
O1237       O  0.85965727  0.62554186  0.44298599    -0.85980
C1238       C  0.87061713  0.64610896  0.44170473     1.01730
O1239       O  0.86651441  0.66278941  0.45787570    -0.78750
O1240       O  0.81900196  0.67530101  0.44674926    -0.78930
C1241       C  0.79679549  0.67059494  0.44089122     1.01680
O1242       O  0.78739892  0.64375499  0.50808444    -0.86260
O1243       O  0.79794920  0.59587308  0.49552785    -0.83320
C1244       C  0.81593633  0.58957041  0.50974577     0.97220
O1245       O  0.83704809  0.59948323  0.50735654    -0.83350
O1246       O  0.87449446  0.63132624  0.49316357    -0.85950
C1247       C  0.87188072  0.64650163  0.51075006     1.01690
O1248       O  0.85346914  0.66124567  0.51057146    -0.78770
O1249       O  0.80593493  0.67877153  0.49925849    -0.78920
C1250       C  0.79299466  0.66567393  0.51398104     1.01660
Cr1251     Cr  0.79352205  0.62788500  0.47553408     1.93740
Cr1252     Cr  0.84807806  0.61271982  0.47522852     1.93210
Cr1253     Cr  0.83528507  0.66749336  0.47862882     1.39100
O1254       O  0.82544988  0.63614933  0.47663550    -1.24010
O1255       O  0.00457691  0.67460364  0.65365207    -0.86260
O1256       O  0.01408315  0.65802871  0.60625269    -0.83310
C1257       C  0.01530958  0.64270380  0.58854048     0.97200
O1258       O  0.99938979  0.62543851  0.58666867    -0.83340
O1259       O  0.00872774  0.59253727  0.62466831    -0.85980
C1260       C  0.01091647  0.58377980  0.64629440     1.01730
O1261       O  0.99750280  0.59191188  0.66399910    -0.78750
O1262       O  0.01316249  0.63908917  0.67178028    -0.78930
C1263       C  0.01977100  0.66044414  0.66508669     1.01680
O1264       O  0.95072045  0.67181406  0.64148733    -0.86260
O1265       O  0.96256728  0.65970161  0.59335214    -0.83320
C1266       C  0.94679870  0.64297472  0.58847545     0.97220
O1267       O  0.94705875  0.62313291  0.60067542    -0.83350
O1268       O  0.95681877  0.58612109  0.63349279    -0.85950
C1269       C  0.94235310  0.59142067  0.65126799     1.01690
O1270       O  0.94645070  0.60990696  0.66477390    -0.78770
O1271       O  0.96159019  0.65644602  0.67740155    -0.78920
C1272       C  0.94567881  0.66771057  0.66400855     1.01660
Cr1273     Cr  0.98277397  0.66396542  0.62483286     1.93740
Cr1274     Cr  0.97820025  0.60868465  0.61292819     1.93210
Cr1275     Cr  0.97977566  0.62509793  0.66727076     1.39100
O1276       O  0.98072684  0.63252357  0.63502452    -1.24010
O1277       O  0.78618957  0.44668355  0.31716296    -0.86260
O1278       O  0.79748620  0.46414629  0.36385789    -0.83310
C1279       C  0.81488039  0.44981892  0.37109775     0.97200
O1280       O  0.83531744  0.44904126  0.35945031    -0.83340
O1281       O  0.87249915  0.45785200  0.32453695    -0.85980
C1282       C  0.86997502  0.44277360  0.30662389     1.01730
O1283       O  0.85102052  0.44408206  0.29296239    -0.78750
O1284       O  0.80293596  0.45325026  0.28051819    -0.78930
C1285       C  0.79205230  0.43874715  0.29580266     1.01680
O1286       O  0.78024343  0.49774878  0.29916449    -0.86260
O1287       O  0.79748918  0.51435044  0.34481870    -0.83320
C1288       C  0.81243392  0.51730536  0.36276013     0.97220
O1289       O  0.82885348  0.50091182  0.36713135    -0.83350
O1290       O  0.86071632  0.50971148  0.32914985    -0.85950
C1291       C  0.87076929  0.51084825  0.30820375     1.01690
O1292       O  0.86404680  0.49623169  0.29094722    -0.78770
O1293       O  0.81535136  0.50722025  0.28136397    -0.78920
C1294       C  0.79303294  0.51265772  0.28618408     1.01660
Cr1295     Cr  0.79246522  0.48050749  0.33026041     1.93740
Cr1296     Cr  0.84767959  0.47915033  0.34328534     1.93210
Cr1297     Cr  0.83233836  0.47550030  0.28865347     1.39100
O1298       O  0.82418243  0.47810922  0.32066237    -1.24010
O1299       O  0.00614521  0.65081461  0.27938427    -0.86260
O1300       O  0.01588012  0.60313878  0.29429381    -0.83310
C1301       C  0.01645817  0.58432029  0.30818558     0.97200
O1302       O  0.99897318  0.58114115  0.32337961    -0.83340
O1303       O  0.01368954  0.61611242  0.35930299    -0.85980
C1304       C  0.01629466  0.63733085  0.36909776     1.01730
O1305       O  0.00185207  0.65491065  0.36270069    -0.78750
O1306       O  0.01532677  0.66700812  0.31556311    -0.78930
C1307       C  0.02137788  0.66194508  0.29346089     1.01680
O1308       O  0.95281636  0.63980541  0.28300938    -0.86260
O1309       O  0.96262176  0.59125076  0.29289468    -0.83320
C1310       C  0.94733106  0.58545898  0.31004073     0.97220
O1311       O  0.94893042  0.59520658  0.33124820    -0.83350
O1312       O  0.96280042  0.62501875  0.36985699    -0.85950
C1313       C  0.94771446  0.64277490  0.36721011     1.01690
O1314       O  0.94990280  0.65739533  0.34891861    -0.78770
O1315       O  0.96351035  0.67408730  0.30179340    -0.78920
C1316       C  0.94827048  0.66206941  0.28857006     1.01660
Cr1317     Cr  0.98425677  0.62199060  0.28959473     1.93740
Cr1318     Cr  0.98134893  0.60614136  0.34416891     1.93210
Cr1319     Cr  0.98255994  0.66125899  0.33134383     1.39100
O1320       O  0.98278576  0.62993983  0.32166312    -1.24010
O1321       O  0.17628722  0.44852686  0.63682643    -0.86260
O1322       O  0.16521731  0.46279515  0.58927191    -0.83310
C1323       C  0.14810714  0.44772240  0.58308365     0.97200
O1324       O  0.12752418  0.44829277  0.59459490    -0.83340
O1325       O  0.08982668  0.46034618  0.62786907    -0.85980
C1326       C  0.09332985  0.44285099  0.64292441     1.01730
O1327       O  0.11176230  0.44420870  0.65746953    -0.78750
O1328       O  0.15928471  0.45613022  0.67282096    -0.78930
C1329       C  0.17160519  0.44170301  0.65874367     1.01680
O1330       O  0.18085516  0.49995811  0.65258266    -0.86260
O1331       O  0.16413850  0.51443222  0.60619931    -0.83320
C1332       C  0.14944198  0.51631440  0.58797503     0.97220
O1333       O  0.13384552  0.49937226  0.58395317    -0.83350
O1334       O  0.10053191  0.51092569  0.62173503    -0.85950
C1335       C  0.09031443  0.51172859  0.64284003     1.01690
O1336       O  0.09712066  0.49677536  0.65990404    -0.78770
O1337       O  0.14553344  0.50894709  0.67069337    -0.78920
C1338       C  0.16787512  0.51459394  0.66579003     1.01660
Cr1339     Cr  0.16953735  0.48133582  0.62210460     1.93740
Cr1340     Cr  0.11464697  0.47968548  0.60864535     1.93210
Cr1341     Cr  0.12923714  0.47671608  0.66314425     1.39100
O1342       O  0.13787267  0.47939656  0.63144245    -1.24010
O1343       O  0.18041971  0.65563572  0.49870818    -0.86260
O1344       O  0.16428034  0.60830023  0.50888559    -0.83310
C1345       C  0.14955736  0.59014182  0.50986381     0.97200
O1346       O  0.13347333  0.58766434  0.49315864    -0.83340
O1347       O  0.10194070  0.62509361  0.50981263    -0.85980
C1348       C  0.09296422  0.64642442  0.51385821     1.01730
O1349       O  0.09740808  0.66388059  0.49855211    -0.78750
O1350       O  0.14535451  0.67359393  0.50922259    -0.78930
C1351       C  0.16760765  0.66816693  0.51422037     1.01680
O1352       O  0.17438390  0.64444031  0.44548731    -0.86260
O1353       O  0.16290347  0.59631496  0.45559521    -0.83320
C1354       C  0.14462002  0.59055713  0.44158492     0.97220
O1355       O  0.12374272  0.60120405  0.44419518    -0.83350
O1356       O  0.08776285  0.63491141  0.45959906    -0.85950
C1357       C  0.09179453  0.65145188  0.44347065     1.01690
O1358       O  0.11018834  0.66566237  0.44549272    -0.78770
O1359       O  0.15769227  0.67987512  0.45649242    -0.78920
C1360       C  0.16953843  0.66686150  0.44073056     1.01660
Cr1361     Cr  0.16848533  0.62705543  0.47715264     1.93740
Cr1362     Cr  0.11331834  0.61401529  0.47679056     1.93210
Cr1363     Cr  0.12841767  0.66857635  0.47732335     1.39100
O1364       O  0.13685906  0.63663773  0.47688780    -1.24010
O1365       O  0.17998648  0.31146605  0.44774094    -0.86260
O1366       O  0.16669479  0.35892963  0.45570758    -0.83310
C1367       C  0.14941943  0.36305563  0.44000530     0.97200
O1368       O  0.12804107  0.35415930  0.44364292    -0.83340
O1369       O  0.09030196  0.32350521  0.45838381    -0.85980
C1370       C  0.09331130  0.30712831  0.44200181     1.01730
O1371       O  0.11242571  0.29343809  0.44298244    -0.78750
O1372       O  0.15981262  0.27718481  0.45482253    -0.78930
C1373       C  0.17400606  0.28985460  0.44106929     1.01680
O1374       O  0.18128942  0.30201455  0.50242114    -0.86260
O1375       O  0.16536558  0.34971138  0.50993297    -0.83320
C1376       C  0.15087866  0.36826036  0.50962796     0.97220
O1377       O  0.13537906  0.37009885  0.49226091    -0.83350
O1378       O  0.10351030  0.33226552  0.50857970    -0.85950
C1379       C  0.09484811  0.31065638  0.51163450     1.01690
O1380       O  0.09969522  0.29366651  0.49595197    -0.78770
O1381       O  0.14672912  0.28113558  0.50651907    -0.78920
C1382       C  0.16733381  0.28779976  0.51512387     1.01660
Cr1383     Cr  0.17121399  0.32956541  0.47886180     1.93740
Cr1384     Cr  0.11611752  0.34323448  0.47593458     1.93210
Cr1385     Cr  0.13055403  0.28868146  0.47501638     1.39100
O1386       O  0.13954765  0.32029204  0.47671444    -1.24010
O1387       O  0.17873624  0.50933227  0.31764295    -0.86260
O1388       O  0.16427804  0.49703125  0.36390075    -0.83310
C1389       C  0.14556922  0.51091160  0.36855542     0.97200
O1390       O  0.12494367  0.50735494  0.35763221    -0.83340
O1391       O  0.09099812  0.49089228  0.32103053    -0.85980
C1392       C  0.09449264  0.50892280  0.30670351     1.01730
O1393       O  0.11383123  0.50908316  0.29334008    -0.78750
O1394       O  0.16282024  0.50114122  0.28108343    -0.78930
C1395       C  0.17337437  0.51603334  0.29590508     1.01680
O1396       O  0.18622760  0.45623431  0.30468502    -0.86260
O1397       O  0.16748596  0.44448538  0.35048814    -0.83320
C1398       C  0.15175621  0.44211623  0.36771437     0.97220
O1399       O  0.13456281  0.45781226  0.37005354    -0.83350
O1400       O  0.10651084  0.44212472  0.32913297    -0.85950
C1401       C  0.09824942  0.44009300  0.30722840     1.01690
O1402       O  0.10413309  0.45597476  0.29078532    -0.78770
O1403       O  0.15287781  0.44743595  0.28310179    -0.78920
C1404       C  0.17430178  0.44150137  0.29064651     1.01660
Cr1405     Cr  0.17213304  0.47671432  0.33307253     1.93740
Cr1406     Cr  0.11609766  0.47475490  0.34288847     1.93210
Cr1407     Cr  0.13423133  0.47839012  0.28930804     1.39100
O1408       O  0.14100411  0.47673799  0.32168142    -1.24010
O1409       O  0.20596801  0.17385528  0.82448752    -0.86260
O1410       O  0.19486597  0.13249946  0.79452714    -0.83310
C1411       C  0.18692626  0.12015960  0.77617552     0.97200
O1412       O  0.18181586  0.13117661  0.75587904    -0.83340
O1413       O  0.14039969  0.16198783  0.76366929    -0.85980
C1414       C  0.12760115  0.17943978  0.77297600     1.01730
O1415       O  0.13794370  0.19884929  0.78121189    -0.78750
O1416       O  0.16763443  0.18711301  0.82255623    -0.78930
C1417       C  0.18582430  0.17949584  0.83543519     1.01680
O1418       O  0.23309247  0.19397447  0.78338056    -0.86260
O1419       O  0.22777968  0.15187715  0.75690585    -0.83320
C1420       C  0.22499093  0.16154610  0.73567911     0.97220
O1421       O  0.20475426  0.17193879  0.72986168    -0.83350
O1422       O  0.16227556  0.19998615  0.73478975    -0.85950
C1423       C  0.16965401  0.22154340  0.74027825     1.01690
O1424       O  0.17891479  0.22614098  0.76121634    -0.78770
O1425       O  0.20675499  0.21874514  0.80248676    -0.78920
C1426       C  0.22785097  0.21482783  0.79250492     1.01660
Cr1427     Cr  0.21315481  0.16406847  0.78904452     1.93740
Cr1428     Cr  0.17332581  0.16702955  0.74827234     1.93210
Cr1429     Cr  0.17367189  0.20545043  0.79085204     1.39100
O1430       O  0.18639713  0.17871628  0.77614283    -1.24010
O1431       O  0.28882793  0.13124510  0.69307186    -0.86260
O1432       O  0.32852021  0.16276421  0.68340039    -0.83310
C1433       C  0.34062741  0.18142838  0.67601091     0.97200
O1434       O  0.32875004  0.20066759  0.66927184    -0.83340
O1435       O  0.29738261  0.18929831  0.62837303    -0.85980
C1436       C  0.27866011  0.18144475  0.61639173     1.01730
O1437       O  0.25889860  0.17601436  0.62807641    -0.78750
O1438       O  0.27058394  0.13413881  0.65660814    -0.78930
C1439       C  0.28090886  0.12114291  0.67333047     1.01680
O1440       O  0.26622346  0.17002899  0.72277507    -0.86260
O1441       O  0.30690504  0.19970768  0.71600245    -0.83320
C1442       C  0.29783630  0.22110453  0.71189306     0.97220
O1443       O  0.28784451  0.22628561  0.69133169    -0.83350
O1444       O  0.25901282  0.22028037  0.65029555    -0.85950
C1445       C  0.23834763  0.21649224  0.66106665     1.01690
O1446       O  0.23386746  0.19582523  0.67096077    -0.78770
O1447       O  0.24092213  0.15273168  0.69604930    -0.78920
C1448       C  0.24524367  0.16103586  0.71747226     1.01660
Cr1449     Cr  0.29645347  0.16679104  0.70165029     1.93740
Cr1450     Cr  0.29255428  0.20681344  0.66075778     1.93210
Cr1451     Cr  0.25339147  0.16574880  0.66368160     1.39100
O1452       O  0.28101279  0.17956079  0.67530042    -1.24010
O1453       O  0.16297665  0.32396008  0.68915735    -0.86260
O1454       O  0.13437691  0.28168467  0.70137347    -0.83310
C1455       C  0.12312214  0.27507182  0.68187275     0.97200
O1456       O  0.13576418  0.26831007  0.66327940    -0.83340
O1457       O  0.17608676  0.25828623  0.63229433    -0.85980
C1458       C  0.18313958  0.27789998  0.62136837     1.01730
O1459       O  0.19292746  0.29539012  0.63341335    -0.78750
O1460       O  0.20123566  0.32573013  0.67416257    -0.78930
C1461       C  0.18070949  0.33625139  0.67964553     1.01680
O1462       O  0.20212048  0.30522627  0.72027686    -0.86260
O1463       O  0.17682587  0.26238388  0.72695055    -0.83320
C1464       C  0.16790219  0.24142220  0.72192169     0.97220
O1465       O  0.15774080  0.23737171  0.70112510    -0.83350
O1466       O  0.19864722  0.23110361  0.67229723    -0.85950
C1467       C  0.21935814  0.23608224  0.66251286     1.01690
O1468       O  0.22394902  0.25766820  0.65450021    -0.78770
O1469       O  0.22909040  0.28571012  0.69664617    -0.78920
C1470       C  0.22337180  0.29560868  0.71706588     1.01660
Cr1471     Cr  0.16984394  0.29232787  0.70714205     1.93740
Cr1472     Cr  0.16809850  0.25101143  0.66802020     1.93210
Cr1473     Cr  0.20962786  0.29031364  0.66582396     1.39100
O1474       O  0.18237483  0.27806784  0.68001494    -1.24010
O1475       O  0.27253227  0.29249535  0.82128931    -0.86260
O1476       O  0.26404842  0.32507851  0.78081717    -0.83310
C1477       C  0.28408909  0.33540243  0.77352717     0.97200
O1478       O  0.30158286  0.32265401  0.76405274    -0.83340
O1479       O  0.33067591  0.28061728  0.75251011    -0.85980
C1480       C  0.34229368  0.27497493  0.77219069     1.01730
O1481       O  0.33031700  0.26638981  0.79057773    -0.78750
O1482       O  0.28926555  0.25505886  0.82152282    -0.78930
C1483       C  0.28151120  0.27408609  0.83299532     1.01680
O1484       O  0.24158977  0.25607499  0.79892820    -0.86260
O1485       O  0.23575419  0.28569470  0.75785508    -0.83320
C1486       C  0.24142389  0.29535223  0.73729556     0.97220
O1487       O  0.26288995  0.30396299  0.73358536    -0.83350
O1488       O  0.28846009  0.26100360  0.72683427    -0.85950
C1489       C  0.29841328  0.24026735  0.73122900     1.01690
O1490       O  0.30850110  0.23598740  0.75208176    -0.78770
O1491       O  0.26722514  0.22961716  0.78094343    -0.78920
C1492       C  0.24651097  0.23452271  0.79091590     1.01660
Cr1493     Cr  0.25578803  0.28903104  0.78855210     1.93740
Cr1494     Cr  0.29510482  0.29092106  0.74664301     1.93210
Cr1495     Cr  0.29772321  0.24918882  0.78549341     1.39100
O1496       O  0.28302213  0.27664816  0.77394888    -1.24010
O1497       O  0.16362876  0.77515460  0.99730085    -0.86260
O1498       O  0.11600566  0.78758220  0.01134465    -0.83310
C1499       C  0.09720104  0.80112388  0.01507700     0.97200
O1500       O  0.09211049  0.81875994  0.00028609    -0.83340
O1501       O  0.12793721  0.85332245  0.01072910    -0.85980
C1502       C  0.14868807  0.86408648  0.01158252     1.01730
O1503       O  0.16590280  0.85869493  0.99631805    -0.78750
O1504       O  0.17868439  0.81107385  0.00833104    -0.78930
C1505       C  0.17481500  0.78848661  0.01310005     1.01680
O1506       O  0.14837849  0.78064638  0.94553854    -0.86260
O1507       O  0.10015540  0.78835877  0.95972374    -0.83320
C1508       C  0.09344781  0.80573964  0.94524714     0.97220
O1509       O  0.10134570  0.82740035  0.94821105    -0.83350
O1510       O  0.13290100  0.86559842  0.95878239    -0.85950
C1511       C  0.14992380  0.86312580  0.94256562     1.01690
O1512       O  0.16543266  0.84552831  0.94444332    -0.78770
O1513       O  0.18337002  0.79865729  0.95559237    -0.78920
C1514       C  0.17047933  0.78646762  0.94013209     1.01660
Cr1515     Cr  0.13269099  0.78520602  0.97846477     1.93740
Cr1516     Cr  0.11539516  0.83954464  0.97942075     1.93210
Cr1517     Cr  0.17121315  0.82754572  0.97630949     1.39100
O1518       O  0.13975980  0.81742810  0.97804022    -1.24010
O1519       O  0.14972094  0.94777759  0.77964079    -0.86260
O1520       O  0.10137547  0.95649002  0.78872533    -0.83310
C1521       C  0.09693955  0.93902045  0.80377106     0.97200
O1522       O  0.10589465  0.93947597  0.82550000    -0.83340
O1523       O  0.13451468  0.95332962  0.86681051    -0.85980
C1524       C  0.15168140  0.93771132  0.86376920     1.01730
O1525       O  0.16723389  0.94104777  0.84633205    -0.78750
O1526       O  0.18393359  0.95604099  0.79989336    -0.78930
C1527       C  0.17160687  0.94187168  0.78575973     1.01680
O1528       O  0.16021831  0.00009327  0.77852730    -0.86260
O1529       O  0.11090895  0.00879902  0.79411546    -0.83320
C1530       C  0.09159473  0.00713717  0.80763424     0.97220
O1531       O  0.08914898  0.98879851  0.82177473    -0.83350
O1532       O  0.12378099  0.00337894  0.85636513    -0.85950
C1533       C  0.14464329  0.00683991  0.86670587     1.01690
O1534       O  0.16335267  0.99326294  0.86134716    -0.78770
O1535       O  0.17675219  0.00808356  0.81463199    -0.78920
C1536       C  0.17199313  0.01463913  0.79255229     1.01660
Cr1537     Cr  0.13141864  0.97830006  0.78746861     1.93740
Cr1538     Cr  0.11517658  0.97140052  0.84101564     1.93210
Cr1539     Cr  0.17074594  0.97461466  0.82963581     1.39100
O1540       O  0.13932369  0.97493037  0.81930448    -1.24010
O1541       O  0.82126141  0.94485050  0.17004517    -0.86260
O1542       O  0.86941171  0.96028481  0.16529351    -0.83310
C1543       C  0.87902713  0.94841119  0.14727148     0.97200
O1544       O  0.87166715  0.95209609  0.12535895    -0.83340
O1545       O  0.83964515  0.96103284  0.08690148    -0.85980
C1546       C  0.82283449  0.94455150  0.08850410     1.01730
O1547       O  0.80676767  0.94526767  0.10567491    -0.78750
O1548       O  0.78650930  0.95506368  0.15169328    -0.78930
C1549       C  0.79977988  0.93902081  0.16268396     1.01680
O1550       O  0.80424212  0.99652586  0.17652697    -0.86260
O1551       O  0.85252515  0.01135920  0.16786601    -0.83320
C1552       C  0.87168721  0.01594350  0.15505170     0.97220
O1553       O  0.87646976  0.00359193  0.13560438    -0.83350
O1554       O  0.84063108  0.01345194  0.09970941    -0.85950
C1555       C  0.82007980  0.01314333  0.08836010     1.01690
O1556       O  0.80433764  0.99631198  0.09265780    -0.78770
O1557       O  0.79054721  0.00770053  0.13999328    -0.78920
C1558       C  0.79293628  0.01216446  0.16282867     1.01660
Cr1559     Cr  0.83616012  0.97827865  0.16758312     1.93740
Cr1560     Cr  0.85513247  0.98241507  0.11354104     1.93210
Cr1561     Cr  0.79926350  0.97630339  0.12363398     1.39100
O1562       O  0.83036049  0.97893238  0.13495281    -1.24010
O1563       O  0.95184907  0.78532278  0.14085391    -0.86260
O1564       O  0.96832946  0.78930765  0.09335787    -0.83310
C1565       C  0.95376814  0.80585353  0.08501021     0.97200
O1566       O  0.95510480  0.82795224  0.09263108    -0.83340
O1567       O  0.96566977  0.86838230  0.12325570    -0.85980
C1568       C  0.95222009  0.86911630  0.14279024     1.01730
O1569       O  0.95386074  0.85184197  0.15842050    -0.78750
O1570       O  0.96088778  0.80494319  0.17536361    -0.78930
C1571       C  0.94517702  0.79375087  0.16168192     1.01680
O1572       O  0.00294535  0.77817116  0.15830340    -0.86260
O1573       O  0.01915355  0.78925603  0.11062841    -0.83320
C1574       C  0.02252908  0.80181399  0.09104814     0.97220
O1575       O  0.00734022  0.81891771  0.08501716    -0.83350
O1576       O  0.01784407  0.85513341  0.11806049    -0.85950
C1577       C  0.02047071  0.86624957  0.13834410     1.01690
O1578       O  0.00625567  0.86157391  0.15662687    -0.78770
O1579       O  0.01555507  0.81417524  0.17097417    -0.78920
C1580       C  0.01929956  0.79125069  0.16887048     1.01660
Cr1581     Cr  0.98556964  0.78782955  0.12648484     1.93740
Cr1582     Cr  0.98622448  0.84110946  0.10673229     1.93210
Cr1583     Cr  0.98430202  0.83188671  0.16317018     1.39100
O1584       O  0.98513549  0.82041799  0.13213066    -1.24010
O1585       O  0.80667740  0.99907580  0.77689191    -0.86260
O1586       O  0.85378691  0.01171853  0.79244630    -0.83310
C1587       C  0.87262379  0.01345495  0.80625134     0.97200
O1588       O  0.87659302  0.99721908  0.82267709    -0.83340
O1589       O  0.83839700  0.01128410  0.85432163    -0.85980
C1590       C  0.81758612  0.01224603  0.86530659     1.01730
O1591       O  0.80020984  0.99717991  0.85973392    -0.78750
O1592       O  0.78803373  0.00776568  0.81194351    -0.78930
C1593       C  0.79385686  0.01384683  0.79005163     1.01680
O1594       O  0.82096581  0.94724217  0.78173062    -0.86260
O1595       O  0.86807078  0.95886084  0.79271266    -0.83320
C1596       C  0.87254373  0.94306083  0.80974320     0.97220
O1597       O  0.86389132  0.94667255  0.83133689    -0.83350
O1598       O  0.83110891  0.96164761  0.86861377    -0.85950
C1599       C  0.81608018  0.94402656  0.86600435     1.01690
O1600       O  0.80175600  0.94413794  0.84739846    -0.78770
O1601       O  0.78540261  0.95421220  0.79995777    -0.78920
C1602       C  0.79931743  0.94018369  0.78692400     1.01660
Cr1603     Cr  0.83657329  0.97931921  0.78805306     1.93740
Cr1604     Cr  0.85088773  0.97907777  0.84253990     1.93210
Cr1605     Cr  0.79587332  0.97596689  0.82883260     1.39100
O1606       O  0.82762120  0.97815054  0.81965951    -1.24010
O1607       O  0.82469935  0.78721639  0.94405466    -0.86260
O1608       O  0.87256594  0.79584488  0.95820862    -0.83310
C1609       C  0.87939265  0.81421282  0.94506954     0.97200
O1610       O  0.86878429  0.83494349  0.94745165    -0.83340
O1611       O  0.83536871  0.87180882  0.96138629    -0.85980
C1612       C  0.81882883  0.86926352  0.94483713     1.01730
O1613       O  0.80416594  0.85113370  0.94621091    -0.78750
O1614       O  0.78902716  0.80385620  0.95475535    -0.78930
C1615       C  0.80291532  0.79392117  0.93840205     1.01680
O1616       O  0.81020248  0.77839569  0.99702666    -0.86260
O1617       O  0.85844417  0.79177221  0.00941518    -0.83320
C1618       C  0.87752135  0.80529750  0.01149867     0.97220
O1619       O  0.87978690  0.82449011  0.99803711    -0.83350
O1620       O  0.84291908  0.85688891  0.01154764    -0.85950
C1621       C  0.82174399  0.86643799  0.01483078     1.01690
O1622       O  0.80427007  0.86169007  0.99964087    -0.78770
O1623       O  0.79334073  0.81352932  0.00839557    -0.78920
C1624       C  0.79737714  0.79087931  0.01260714     1.01660
Cr1625     Cr  0.84037057  0.79047889  0.97721361     1.93740
Cr1626     Cr  0.85491697  0.84532869  0.97946724     1.93210
Cr1627     Cr  0.79987610  0.83168984  0.97733260     1.39100
O1628       O  0.83171557  0.82242155  0.97818918    -1.24010
O1629       O  0.96156106  0.80231042  0.77973357    -0.86260
O1630       O  0.95115608  0.84963588  0.79545306    -0.83310
C1631       C  0.95001406  0.86807961  0.80985532     0.97200
O1632       O  0.96705170  0.87163396  0.82579383    -0.83340
O1633       O  0.95838027  0.83517420  0.86025358    -0.85980
C1634       C  0.95652164  0.81420614  0.87045372     1.01730
O1635       O  0.96970054  0.79608585  0.86300769    -0.78750
O1636       O  0.95357456  0.78608406  0.81607898    -0.78930
C1637       C  0.94657857  0.79157873  0.79439819     1.01680
O1638       O  0.01476712  0.81483983  0.78130174    -0.86260
O1639       O  0.00307786  0.86279454  0.79142693    -0.83320
C1640       C  0.02025578  0.86776941  0.80671513     0.97220
O1641       O  0.01977926  0.85899533  0.82845192    -0.83350
O1642       O  0.00999374  0.82695440  0.86741976    -0.85950
C1643       C  0.02336529  0.80769385  0.86493424     1.01690
O1644       O  0.02051233  0.79373672  0.84632294    -0.78770
O1645       O  0.00505201  0.77977904  0.79907636    -0.78920
C1646       C  0.02014708  0.79258317  0.78624878     1.01660
Cr1647     Cr  0.98288523  0.83152185  0.78923215     1.93740
Cr1648     Cr  0.98874353  0.84650194  0.84367068     1.93210
Cr1649     Cr  0.98716941  0.79117418  0.83010207     1.39100
O1650       O  0.98626389  0.82301377  0.82107280    -1.24010
O1651       O  0.01619624  0.13780386  0.78255060    -0.86260
O1652       O  0.00390018  0.09024135  0.79813493    -0.83310
C1653       C  0.01736587  0.08458715  0.81703135     0.97200
O1654       O  0.01486350  0.09615140  0.83709753    -0.83340
O1655       O  0.00308392  0.13370693  0.86953596    -0.85980
C1656       C  0.01795620  0.15168847  0.86530873     1.01730
O1657       O  0.01648691  0.16361987  0.84531031    -0.78750
O1658       O  0.00604983  0.17452118  0.79704926    -0.78930
C1659       C  0.02178281  0.16017702  0.78652947     1.01680
O1660       O  0.96374514  0.15118382  0.77592813    -0.86260
O1661       O  0.95143939  0.10583483  0.79407031    -0.83320
C1662       C  0.94834976  0.08841582  0.80922970     0.97220
O1663       O  0.96313898  0.08561940  0.82747902    -0.83350
O1664       O  0.95105025  0.12467722  0.85645940    -0.85950
C1665       C  0.94983086  0.14557914  0.86635641     1.01690
O1666       O  0.96428825  0.16291551  0.85926078    -0.78770
O1667       O  0.95275259  0.16962822  0.81030429    -0.78920
C1668       C  0.94824584  0.16449723  0.78800809     1.01660
Cr1669     Cr  0.98398760  0.12210969  0.78976638     1.93740
Cr1670     Cr  0.98318360  0.11173293  0.84580821     1.93210
Cr1671     Cr  0.98475569  0.16541510  0.82721058     1.39100
O1672       O  0.98449335  0.13306677  0.82084872    -1.24010
O1673       O  0.82037467  0.16835439  0.00775173    -0.86260
O1674       O  0.86825186  0.15682201  0.99892983    -0.83310
C1675       C  0.87358283  0.13897154  0.01342443     0.97200
O1676       O  0.86419534  0.11785442  0.01010871    -0.83340
O1677       O  0.82970136  0.08280709  0.99775435    -0.85980
C1678       C  0.81132415  0.08634799  0.01216192     1.01730
O1679       O  0.79777702  0.10543726  0.00978362    -0.78750
O1680       O  0.78463129  0.15330100  0.99641586    -0.78930
C1681       C  0.79763475  0.16520833  0.01206809     1.01680
O1682       O  0.81053712  0.17315102  0.95380188    -0.86260
O1683       O  0.85828920  0.15804146  0.94641186    -0.83320
C1684       C  0.87643272  0.14331124  0.94499680     0.97220
O1685       O  0.87719295  0.12461131  0.95922381    -0.83350
O1686       O  0.83925270  0.09316133  0.94673958    -0.85950
C1687       C  0.81803805  0.08351740  0.94458366     1.01690
O1688       O  0.80017230  0.09040996  0.95847487    -0.78770
O1689       O  0.79258678  0.13809983  0.94397534    -0.78920
C1690       C  0.79993230  0.15940827  0.93783385     1.01660
Cr1691     Cr  0.83827076  0.16186083  0.97678657     1.93740
Cr1692     Cr  0.85085814  0.10645823  0.97835707     1.93210
Cr1693     Cr  0.79605699  0.12276884  0.97718704     1.39100
O1694       O  0.82844223  0.13039060  0.97748628    -1.24010
O1695       O  0.16244925  0.99923414  0.17300795    -0.86260
O1696       O  0.11431109  0.00861965  0.16178018    -0.83310
C1697       C  0.09465375  0.00992998  0.14925189     0.97200
O1698       O  0.09165405  0.99529731  0.13107917    -0.83340
O1699       O  0.12727040  0.00839670  0.09657781    -0.85980
C1700       C  0.14692114  0.00927978  0.08377281     1.01730
O1701       O  0.16513440  0.99499728  0.08903819    -0.78750
O1702       O  0.17857887  0.00779841  0.13648741    -0.78930
C1703       C  0.17293647  0.01449568  0.15826345     1.01680
O1704       O  0.15095468  0.94571106  0.16951613    -0.86260
O1705       O  0.10185334  0.95606251  0.16034531    -0.83320
C1706       C  0.09559524  0.94221143  0.14222120     0.97220
O1707       O  0.10595660  0.94447098  0.12154265    -0.83350
O1708       O  0.13482745  0.95819675  0.08352075    -0.85950
C1709       C  0.15246270  0.94270167  0.08449306     1.01690
O1710       O  0.16715970  0.94341085  0.10283623    -0.78770
O1711       O  0.18532343  0.95518643  0.14986843    -0.78920
C1712       C  0.17322840  0.94069468  0.16411676     1.01660
Cr1713     Cr  0.13328261  0.97721142  0.16391319     1.93740
Cr1714     Cr  0.11659826  0.97667743  0.10992244     1.93210
Cr1715     Cr  0.17204205  0.97543134  0.12076168     1.39100
O1716       O  0.14077913  0.97656959  0.13167385    -1.24010
O1717       O  0.15974381  0.17490784  0.95692057    -0.86260
O1718       O  0.11195579  0.16331855  0.94293165    -0.83310
C1719       C  0.09270916  0.15038708  0.93966306     0.97200
O1720       O  0.08863187  0.13158399  0.95304357    -0.83340
O1721       O  0.12557144  0.09952445  0.93810931    -0.85980
C1722       C  0.14550019  0.08717088  0.93734153     1.01730
O1723       O  0.16282134  0.09133367  0.95289418    -0.78750
O1724       O  0.17576129  0.13960112  0.94467457    -0.78930
C1725       C  0.17174114  0.16235472  0.94082500     1.01680
O1726       O  0.14418935  0.16557032  0.00893875    -0.86260
O1727       O  0.09648908  0.15837811  0.99431457    -0.83320
C1728       C  0.08931320  0.13963995  0.00676862     0.97220
O1729       O  0.09855023  0.11846376  0.00293323    -0.83350
O1730       O  0.13119294  0.08186892  0.98797314    -0.85950
C1731       C  0.14683625  0.08352380  0.00540737     1.01690
O1732       O  0.16162556  0.10159726  0.00576643    -0.78770
O1733       O  0.17962412  0.14819360  0.99861629    -0.78920
C1734       C  0.16581768  0.15855919  0.01477911     1.01660
Cr1735     Cr  0.12894617  0.16348495  0.97565518     1.93740
Cr1736     Cr  0.11274903  0.10945620  0.97070835     1.93210
Cr1737     Cr  0.16799120  0.12116884  0.97530176     1.39100
O1738       O  0.13656466  0.13150462  0.97389225    -1.24010
O1739       O  0.00816116  0.17442600  0.14922329    -0.86260
O1740       O  0.01863906  0.15068558  0.10479750    -0.83310
C1741       C  0.01875433  0.13461923  0.08780399     0.97200
O1742       O  0.00301626  0.11723133  0.08846208    -0.83340
O1743       O  0.01452092  0.08983083  0.12917144    -0.85980
C1744       C  0.01767925  0.08398455  0.15153250     1.01730
O1745       O  0.00430472  0.09353783  0.16869263    -0.78750
O1746       O  0.01638037  0.14240683  0.17254432    -0.78930
C1747       C  0.02230185  0.16357471  0.16463671     1.01680
O1748       O  0.95600433  0.16967067  0.13685057    -0.86260
O1749       O  0.96660472  0.15093812  0.09206958    -0.83320
C1750       C  0.95037648  0.13418044  0.08895674     0.97220
O1751       O  0.95166801  0.11439553  0.10147837    -0.83350
O1752       O  0.96273298  0.08163637  0.14000789    -0.85950
C1753       C  0.94833622  0.08782188  0.15767886     1.01690
O1754       O  0.95147926  0.10808628  0.16867136    -0.78770
O1755       O  0.96247339  0.15640288  0.17457689    -0.78920
C1756       C  0.94847637  0.16719945  0.15871652     1.01660
Cr1757     Cr  0.98732990  0.15916710  0.12209107     1.93740
Cr1758     Cr  0.98304461  0.10282629  0.11641825     1.93210
Cr1759     Cr  0.98386549  0.12561512  0.16871321     1.39100
O1760       O  0.98472790  0.12922362  0.13585334    -1.24010
C1761       C  0.03084336  0.12514649  0.04312034    -0.02760
C1762       C  0.03619628  0.13685856  0.06621228     0.06920
C1763       C  0.05804209  0.15152005  0.06802577    -0.02870
C1764       C  0.07295900  0.15590046  0.04699437    -0.02870
C1765       C  0.06934570  0.14169701  0.02546456     0.07050
C1766       C  0.04823271  0.12631372  0.02353452    -0.03070
Br1767     Br  0.04282109  0.10703297  0.99366704    -0.01620
Br1768     Br  0.99985383  0.10777728  0.03696595    -0.01690
Br1769     Br  0.09837544  0.18122303  0.04801240    -0.01650
Br1770     Br  0.07050772  0.16252243  0.09960807    -0.01630
C1771       C  0.04952663  0.02146651  0.15095538    -0.02760
C1772       C  0.07450893  0.02800304  0.15573324     0.06920
C1773       C  0.07962148  0.05233682  0.16440611    -0.02870
C1774       C  0.06039460  0.07039770  0.16491471    -0.02870
C1775       C  0.03624586  0.06435826  0.15663162     0.07050
C1776       C  0.03109171  0.03986751  0.14913742    -0.03070
Br1777     Br  0.00015873  0.03178173  0.13275841    -0.01620
Br1778     Br  0.03966836  0.98709834  0.14968417    -0.01690
Br1779     Br  0.06786313  0.10419581  0.17379145    -0.01650
Br1780     Br  0.11248729  0.06163755  0.17550613    -0.01630
C1781       C  0.12557564  0.03288984  0.04977887    -0.02760
C1782       C  0.14791885  0.02702416  0.06261643     0.06920
C1783       C  0.17026711  0.03935529  0.05606039    -0.02870
C1784       C  0.17020698  0.05730360  0.03690213    -0.02870
C1785       C  0.14755157  0.06404861  0.02502147     0.07050
C1786       C  0.12518635  0.05193581  0.03199039    -0.03070
Br1787     Br  0.09297986  0.06212483  0.01899893    -0.01620
Br1788     Br  0.09491749  0.01453535  0.05548025    -0.01690
Br1789     Br  0.20164831  0.07180119  0.02681284    -0.01650
Br1790     Br  0.20095267  0.03309345  0.07401859    -0.01630
C1791       C  0.93349483  0.15267722  0.04874086    -0.02760
C1792       C  0.93005339  0.13757976  0.07024110     0.06920
C1793       C  0.90666574  0.12590770  0.07390042    -0.02870
C1794       C  0.88754241  0.12881971  0.05637309    -0.02870
C1795       C  0.89172142  0.14186095  0.03403619     0.07050
C1796       C  0.91441875  0.15468574  0.03071371    -0.03070
Br1797     Br  0.92014605  0.17426057  0.00104919    -0.01620
Br1798     Br  0.96473475  0.16948814  0.04227373    -0.01690
Br1799     Br  0.85492557  0.11566107  0.06377083    -0.01650
Br1800     Br  0.89974802  0.10540399  0.10260827    -0.01630
C1801       C  0.06206620  0.16265684  0.87767736    -0.02760
C1802       C  0.03684226  0.15878506  0.88419392     0.06920
C1803       C  0.03018431  0.16043692  0.90945610    -0.02870
C1804       C  0.04888018  0.16027812  0.92777243    -0.02870
C1805       C  0.07407271  0.15711385  0.92077712     0.07050
C1806       C  0.08074829  0.15909513  0.89557631    -0.03070
Br1807     Br  0.11479005  0.15440873  0.88492447    -0.01620
Br1808     Br  0.07099478  0.17918020  0.84732651    -0.01690
Br1809     Br  0.04020685  0.16568514  0.96213783    -0.01650
Br1810     Br  0.99608346  0.16727407  0.91849267    -0.01630
C1811       C  0.91090317  0.16236746  0.88564457    -0.02760
C1812       C  0.93282196  0.14825761  0.88772646     0.06920
C1813       C  0.93701513  0.13381161  0.90922377    -0.02870
C1814       C  0.91986262  0.13434931  0.92898601    -0.02870
C1815       C  0.89685798  0.14735987  0.92643823     0.07050
C1816       C  0.89322030  0.16260776  0.90504041    -0.03070
Br1817     Br  0.86463759  0.18437824  0.90116851    -0.01620
Br1818     Br  0.90340361  0.17822765  0.85451613    -0.01690
Br1819     Br  0.92956360  0.11826230  0.95983248    -0.01650
Br1820     Br  0.96521461  0.11121386  0.91094179    -0.01630
C1821       C  0.90286903  0.79202103  0.91106895    -0.02760
C1822       C  0.90075828  0.81217554  0.92773349     0.06920
C1823       C  0.91910177  0.83101930  0.92754374    -0.02870
C1824       C  0.93801647  0.83082137  0.90952694    -0.02870
C1825       C  0.93910350  0.81162524  0.89168109     0.07050
C1826       C  0.92237550  0.79144031  0.89343673    -0.03070
Br1827     Br  0.92518422  0.76336702  0.87123909    -0.01620
Br1828     Br  0.87803887  0.76609294  0.91087986    -0.01690
Br1829     Br  0.96314250  0.85667664  0.91022213    -0.01650
Br1830     Br  0.91955278  0.85690879  0.95255442    -0.01630
C1831       C  0.91504088  0.02861293  0.79472482    -0.02760
C1832       C  0.89068380  0.03386151  0.80319844     0.06920
C1833       C  0.88440424  0.05826568  0.81053257    -0.02870
C1834       C  0.90314707  0.07657535  0.81182347    -0.02870
C1835       C  0.92789661  0.07061556  0.80503347     0.07050
C1836       C  0.93305843  0.04746708  0.79408585    -0.03070
Br1837     Br  0.96336428  0.04274911  0.77528317    -0.01620
Br1838     Br  0.92411929  0.99548873  0.78464290    -0.01690
Br1839     Br  0.89494177  0.10991556  0.82218341    -0.01650
Br1840     Br  0.85057429  0.06618859  0.82012023    -0.01630
C1841       C  0.79594769  0.04673571  0.88860132    -0.02760
C1842       C  0.81518819  0.02886678  0.88693822     0.06920
C1843       C  0.83329406  0.02720928  0.90589754    -0.02870
C1844       C  0.83342896  0.04450506  0.92529046    -0.02870
C1845       C  0.81505668  0.06336539  0.92628179     0.07050
C1846       C  0.79572395  0.06388943  0.90841723    -0.03070
Br1847     Br  0.76996870  0.08904435  0.90984455    -0.01620
Br1848     Br  0.77100997  0.04888758  0.86288997    -0.01690
Br1849     Br  0.85912088  0.04199859  0.95053902    -0.01650
Br1850     Br  0.85794770  0.00085372  0.90583427    -0.01630
C1851       C  0.88992764  0.90251697  0.82411133    -0.02760
C1852       C  0.88930515  0.92105690  0.80563923     0.06920
C1853       C  0.90620978  0.91875732  0.78539138    -0.02870
C1854       C  0.92513220  0.90023299  0.78605034    -0.02870
C1855       C  0.92886548  0.88592432  0.80784269     0.07050
C1856       C  0.91123469  0.88782074  0.82721374    -0.03070
Br1857     Br  0.91603580  0.87243270  0.85907548    -0.01620
Br1858     Br  0.85971734  0.89286324  0.84109802    -0.01690
Br1859     Br  0.94642619  0.89512321  0.75754018    -0.01650
Br1860     Br  0.90303692  0.93918744  0.75605156    -0.01630
C1861       C  0.83877820  0.91762573  0.89713433    -0.02760
C1862       C  0.81599378  0.92406212  0.88530329     0.06920
C1863       C  0.79376509  0.91208136  0.89300118    -0.02870
C1864       C  0.79433070  0.89435190  0.91256098    -0.02870
C1865       C  0.81730555  0.88758564  0.92385993     0.07050
C1866       C  0.83945581  0.89870802  0.91501825    -0.03070
Br1867     Br  0.87177776  0.88698981  0.92525960    -0.01620
Br1868     Br  0.87020049  0.93411951  0.88948527    -0.01690
Br1869     Br  0.76323839  0.88057640  0.92442175    -0.01650
Br1870     Br  0.76205798  0.92123133  0.87842964    -0.01630
C1871       C  0.05671604  0.88635543  0.15982432    -0.02760
C1872       C  0.03953010  0.88590510  0.13998297     0.06920
C1873       C  0.04104139  0.90408051  0.12106535    -0.02870
C1874       C  0.05775281  0.92384883  0.12344142    -0.02870
C1875       C  0.07492151  0.92436046  0.14345530     0.07050
C1876       C  0.07464397  0.90531723  0.16136759    -0.03070
Br1877     Br  0.10050789  0.90349506  0.18618502    -0.01620
Br1878     Br  0.05835251  0.85902251  0.18266314    -0.01690
Br1879     Br  0.05705014  0.95003879  0.09853521    -0.01650
Br1880     Br  0.02187364  0.90145775  0.09062637    -0.01630
C1881       C  0.91418799  0.78654827  0.06955969    -0.02760
C1882       C  0.93621136  0.79999408  0.06493469     0.06920
C1883       C  0.94082936  0.80914179  0.04095255    -0.02870
C1884       C  0.92275539  0.80616447  0.02247423    -0.02870
C1885       C  0.89822881  0.79910883  0.02892547     0.07050
C1886       C  0.89430559  0.78805050  0.05245891    -0.03070
Br1887     Br  0.86208281  0.77623038  0.06229836    -0.01620
Br1888     Br  0.91183595  0.76506247  0.09814396    -0.01690
Br1889     Br  0.93300724  0.80735352  0.98830892    -0.01650
Br1890     Br  0.97190852  0.82544388  0.03316186    -0.01630
C1891       C  0.88360137  0.06058080  0.16236650    -0.02760
C1892       C  0.88975706  0.03510825  0.16297112     0.06920
C1893       C  0.91421013  0.02798735  0.16964136    -0.02870
C1894       C  0.93311563  0.04598207  0.17114196    -0.02870
C1895       C  0.92781033  0.07087740  0.16515599     0.07050
C1896       C  0.90263436  0.07852314  0.16407799    -0.03070
Br1897     Br  0.89412100  0.11317464  0.16625579    -0.01620
Br1898     Br  0.84952976  0.07094832  0.15832676    -0.01690
Br1899     Br  0.96509468  0.03763243  0.18514492    -0.01650
Br1900     Br  0.92151182  0.99387093  0.17781107    -0.01630
C1901       C  0.80805390  0.05609500  0.07527683    -0.02760
C1902       C  0.81467129  0.03161005  0.06889491     0.06920
C1903       C  0.81467180  0.02435251  0.04378163    -0.02870
C1904       C  0.80996628  0.04202753  0.02514078    -0.02870
C1905       C  0.80647353  0.06725318  0.03140707     0.07050
C1906       C  0.80318452  0.07376582  0.05657453    -0.03070
Br1907     Br  0.79146143  0.10628674  0.06575765    -0.01620
Br1908     Br  0.80635932  0.06558448  0.10958849    -0.01690
Br1909     Br  0.80652170  0.03140554  0.99108201    -0.01650
Br1910     Br  0.82297353  0.99067873  0.03465211    -0.01630
C1911       C  0.83769490  0.88531336  0.05414035    -0.02760
C1912       C  0.81888923  0.88462090  0.03561370     0.06920
C1913       C  0.80012158  0.90337337  0.03579329    -0.02870
C1914       C  0.80078643  0.92231202  0.05397704    -0.02870
C1915       C  0.82163962  0.92449078  0.06983449     0.07050
C1916       C  0.84079458  0.90660908  0.06863224    -0.03070
Br1917     Br  0.87250005  0.91163014  0.08474029    -0.01620
Br1918     Br  0.85817644  0.85653584  0.06199253    -0.01690
Br1919     Br  0.77409140  0.94650527  0.05587627    -0.01650
Br1920     Br  0.77388004  0.90441924  0.01116978    -0.01630
C1921       C  0.92158010  0.93296644  0.13656608    -0.02760
C1922       C  0.89975109  0.93037923  0.15091718     0.06920
C1923       C  0.89718419  0.90937055  0.16639187    -0.02870
C1924       C  0.91386028  0.88902336  0.16385978    -0.02870
C1925       C  0.93486015  0.89072096  0.14756819     0.07050
C1926       C  0.93973791  0.91406497  0.13644209    -0.03070
Br1927     Br  0.97252217  0.92231269  0.12459042    -0.01620
Br1928     Br  0.92720598  0.96298740  0.11751568    -0.01690
Br1929     Br  0.90693935  0.85942308  0.18305418    -0.01650
Br1930     Br  0.87102412  0.90844862  0.19116995    -0.01630
C1931       C  0.07914386  0.05144694  0.81211942    -0.02760
C1932       C  0.07194604  0.02655011  0.80864403     0.06920
C1933       C  0.04642006  0.02023891  0.81323032    -0.02870
C1934       C  0.02840409  0.03923638  0.81602969    -0.02870
C1935       C  0.03602623  0.06409199  0.81602114     0.07050
C1936       C  0.06143027  0.06839078  0.82092630    -0.03070
Br1937     Br  0.06982715  0.08216967  0.85302010    -0.01620
Br1938     Br  0.11365946  0.06149308  0.81224900    -0.01690
Br1939     Br  0.99534019  0.03147034  0.82786586    -0.01650
Br1940     Br  0.03574062  0.98655827  0.81944747    -0.01630
C1941       C  0.16673834  0.04304552  0.88654597    -0.02760
C1942       C  0.14657032  0.02615208  0.88612618     0.06920
C1943       C  0.12738325  0.02828908  0.90401128    -0.02870
C1944       C  0.12738669  0.04810366  0.92089527    -0.02870
C1945       C  0.14680540  0.06577393  0.92036302     0.07050
C1946       C  0.16683323  0.06280220  0.90367972    -0.03070
Br1947     Br  0.19369919  0.08654053  0.90335483    -0.01620
Br1948     Br  0.19386030  0.04019542  0.86320834    -0.01690
Br1949     Br  0.10096988  0.05024297  0.94540585    -0.01650
Br1950     Br  0.10162916  0.00327230  0.90657058    -0.01630
C1951       C  0.05576345  0.92515908  0.78699891    -0.02760
C1952       C  0.07942370  0.91919843  0.79695522     0.06920
C1953       C  0.08483087  0.89443618  0.80336595    -0.02870
C1954       C  0.06561849  0.87684717  0.80321223    -0.02870
C1955       C  0.04074138  0.88451293  0.79960268     0.07050
C1956       C  0.03589225  0.90856612  0.79041626    -0.03070
Br1957     Br  0.00221328  0.91995072  0.78497205    -0.01620
Br1958     Br  0.05056901  0.95488421  0.76754079    -0.01690
Br1959     Br  0.07343598  0.84221404  0.80571062    -0.01650
Br1960     Br  0.11862804  0.88448421  0.81111564    -0.01630
C1961       C  0.16928248  0.88364414  0.04828271    -0.02760
C1962       C  0.15177539  0.88484931  0.02894670     0.06920
C1963       C  0.13720285  0.90631738  0.02566609    -0.02870
C1964       C  0.13929716  0.92621528  0.04235370    -0.02870
C1965       C  0.15481209  0.92407563  0.06382628     0.07050
C1966       C  0.17111738  0.90327405  0.06545194    -0.03070
Br1967     Br  0.19741113  0.90154160  0.08953524    -0.01620
Br1968     Br  0.18985958  0.85439953  0.05199600    -0.01690
Br1969     Br  0.12233428  0.95677364  0.03328432    -0.01650
Br1970     Br  0.11440479  0.90859961  0.99779899    -0.01630
C1971       C  0.05829471  0.78293152  0.03331144    -0.02760
C1972       C  0.08054718  0.79635776  0.03657707     0.06920
C1973       C  0.08574061  0.80697059  0.05995645    -0.02870
C1974       C  0.06741071  0.80679276  0.07886720    -0.02870
C1975       C  0.04374023  0.79644444  0.07419584     0.07050
C1976       C  0.03962110  0.78354059  0.05179829    -0.03070
Br1977     Br  0.00822562  0.76704794  0.04635028    -0.01620
Br1978     Br  0.05399404  0.76286920  0.00402513    -0.01690
Br1979     Br  0.07426840  0.82145144  0.11082513    -0.01650
Br1980     Br  0.11782573  0.82194811  0.06583549    -0.01630
C1981       C  0.12943739  0.88709048  0.90799835    -0.02760
C1982       C  0.15130944  0.88107485  0.92134328     0.06920
C1983       C  0.17395749  0.89288117  0.91466796    -0.02870
C1984       C  0.17475721  0.90992831  0.89450051    -0.02870
C1985       C  0.15266200  0.91630748  0.88157253     0.07050
C1986       C  0.13001650  0.90462547  0.88862079    -0.03070
Br1987     Br  0.09874906  0.91253989  0.87247279    -0.01620
Br1988     Br  0.09787476  0.87180358  0.91606541    -0.01690
Br1989     Br  0.20574207  0.92612957  0.88621245    -0.01650
Br1990     Br  0.20313921  0.88854078  0.93524357    -0.01630
C1991       C  0.04985037  0.80301886  0.92979432    -0.02760
C1992       C  0.07557480  0.80139912  0.92502580     0.06920
C1993       C  0.08415312  0.79903915  0.90038058    -0.02870
C1994       C  0.06702683  0.79889416  0.88053668    -0.02870
C1995       C  0.04125266  0.80152375  0.88517318     0.07050
C1996       C  0.03277351  0.80179418  0.91007066    -0.03070
Br1997     Br  0.99779786  0.79901419  0.91759436    -0.01620
Br1998     Br  0.03799736  0.81037413  0.96284814    -0.01690
Br1999     Br  0.07929949  0.79600193  0.84729708    -0.01650
Br2000     Br  0.11949835  0.79855132  0.89361730    -0.01630
C2001       C  0.16483924  0.07995033  0.76581936    -0.02760
C2002       C  0.18466533  0.09246842  0.77780787     0.06920
C2003       C  0.20318564  0.07809004  0.79005515    -0.02870
C2004       C  0.20030589  0.05212880  0.79277734    -0.02870
C2005       C  0.17880607  0.04016762  0.78361556     0.07050
C2006       C  0.16239507  0.05391576  0.76803008    -0.03070
Br2007     Br  0.13647768  0.03776135  0.74899615    -0.01620
Br2008     Br  0.13973633  0.09820689  0.74733088    -0.01690
Br2009     Br  0.22732918  0.03241373  0.80624564    -0.01650
Br2010     Br  0.23351828  0.09340825  0.80177695    -0.01630
C2011       C  0.16768589  0.19355702  0.87716852    -0.02760
C2012       C  0.18437012  0.17811199  0.86345257     0.06920
C2013       C  0.20081610  0.16234577  0.87708361    -0.02870
C2014       C  0.19944391  0.16117592  0.90325398    -0.02870
C2015       C  0.17982002  0.17299248  0.91624197     0.07050
C2016       C  0.16517816  0.19074399  0.90330371    -0.03070
Br2017     Br  0.14138646  0.21134618  0.92087360    -0.01620
Br2018     Br  0.14808066  0.21905338  0.86080027    -0.01690
Br2019     Br  0.22563929  0.14452182  0.92172001    -0.01650
Br2020     Br  0.22430670  0.14024402  0.86082397    -0.01630
C2021       C  0.05645692  0.18846665  0.76904343    -0.02760
C2022       C  0.04850130  0.16739861  0.78250143     0.06920
C2023       C  0.06683106  0.15170851  0.79291071    -0.02870
C2024       C  0.09231829  0.15565549  0.78955134    -0.02870
C2025       C  0.10036745  0.17617092  0.77587890     0.07050
C2026       C  0.08246559  0.19291163  0.76576435    -0.03070
Br2027     Br  0.09351422  0.22113651  0.74665210    -0.01620
Br2028     Br  0.03202297  0.21054703  0.75474610    -0.01690
Br2029     Br  0.11637884  0.13389240  0.80579190    -0.01650
Br2030     Br  0.05737735  0.12697799  0.81572743    -0.01630
C2031       C  0.19722788  0.28526423  0.55208507    -0.02760
C2032       C  0.17337112  0.28080825  0.54154861     0.06920
C2033       C  0.15374332  0.27305312  0.55775156    -0.02870
C2034       C  0.15661545  0.27465393  0.58360985    -0.02870
C2035       C  0.18001901  0.27976631  0.59403859     0.07050
C2036       C  0.20057274  0.28419451  0.57819260    -0.03070
Br2037     Br  0.23350444  0.28793708  0.59223741    -0.01620
Br2038     Br  0.22603714  0.29067219  0.53114797    -0.01690
Br2039     Br  0.12751137  0.27221696  0.60468313    -0.01650
Br2040     Br  0.12287118  0.25837202  0.54608814    -0.01630
C2041       C  0.17466078  0.39486662  0.41524248    -0.02760
C2042       C  0.15274916  0.38035591  0.41853297     0.06920
C2043       C  0.13198160  0.38505451  0.40283116    -0.02870
C2044       C  0.13092114  0.40680085  0.38883062    -0.02870
C2045       C  0.15264474  0.42094435  0.38505969     0.07050
C2046       C  0.17466655  0.41474791  0.39803210    -0.03070
Br2047     Br  0.20366650  0.43578648  0.39502482    -0.01620
Br2048     Br  0.20509008  0.38801338  0.43337252    -0.01690
Br2049     Br  0.09837351  0.41784464  0.37772099    -0.01650
Br2050     Br  0.10494796  0.36163400  0.39813108    -0.01630
C2051       C  0.16396705  0.56982548  0.40391967    -0.02760
C2052       C  0.14656141  0.56957530  0.42363090     0.06920
C2053       C  0.13021657  0.54916395  0.42603952    -0.02870
C2054       C  0.13063186  0.52974894  0.40849387    -0.02870
C2055       C  0.14717152  0.53051824  0.38806810     0.07050
C2056       C  0.16451161  0.55024057  0.38637519    -0.03070
Br2057     Br  0.18887691  0.55091026  0.35997015    -0.01620
Br2058     Br  0.18600941  0.59776157  0.40005333    -0.01690
Br2059     Br  0.10971299  0.50103063  0.41357819    -0.01650
Br2060     Br  0.10763874  0.54715478  0.45400082    -0.01630
C2061       C  0.18819544  0.39887987  0.64878992    -0.02760
C2062       C  0.17847489  0.41567980  0.66669135     0.06920
C2063       C  0.17203982  0.40598302  0.69046609    -0.02870
C2064       C  0.17254874  0.37998125  0.69479079    -0.02870
C2065       C  0.17849735  0.36342796  0.67528439     0.07050
C2066       C  0.18604336  0.37316842  0.65220031    -0.03070
Br2067     Br  0.19194714  0.35153751  0.62414150    -0.01620
Br2068     Br  0.20794143  0.40991892  0.62092543    -0.01690
Br2069     Br  0.16629778  0.36709720  0.72774703    -0.01650
Br2070     Br  0.16497220  0.42780539  0.71809558    -0.01630
C2071       C  0.12913626  0.42263085  0.54914398    -0.02760
C2072       C  0.15088750  0.42988700  0.56178743     0.06920
C2073       C  0.17388703  0.41911173  0.55428490    -0.02870
C2074       C  0.17415285  0.39832677  0.53798935    -0.02870
C2075       C  0.15147943  0.38864146  0.52855260     0.07050
C2076       C  0.12889346  0.40118153  0.53446917    -0.03070
Br2077     Br  0.09659774  0.38912730  0.52389270    -0.01620
Br2078     Br  0.10105328  0.44518182  0.54716169    -0.01690
Br2079     Br  0.20571926  0.38427407  0.52765958    -0.01650
Br2080     Br  0.20498092  0.43495828  0.56254854    -0.01630
C2081       C  0.17305109  0.54652329  0.56081802    -0.02760
C2082       C  0.15023130  0.53730613  0.57017652     0.06920
C2083       C  0.12752142  0.54554499  0.55954027    -0.02870
C2084       C  0.12753719  0.56126179  0.53885396    -0.02870
C2085       C  0.15024666  0.57160741  0.53023222     0.07050
C2086       C  0.17304133  0.56364440  0.54090413    -0.03070
Br2087     Br  0.20439409  0.57258661  0.52569630    -0.01620
Br2088     Br  0.20450735  0.53443853  0.57362118    -0.01690
Br2089     Br  0.09565195  0.56704188  0.52236545    -0.01650
Br2090     Br  0.09551379  0.53625721  0.57333663    -0.01630
C2091       C  0.04160848  0.55042418  0.32844861    -0.02760
C2092       C  0.03697536  0.56556575  0.30723212     0.06920
C2093       C  0.05205061  0.56235333  0.28570210    -0.02870
C2094       C  0.07094033  0.54394293  0.28525333    -0.02870
C2095       C  0.07568250  0.52931368  0.30662281     0.07050
C2096       C  0.06154687  0.53360556  0.32851651    -0.03070
Br2097     Br  0.06964111  0.51780504  0.36005570    -0.01620
Br2098     Br  0.02111819  0.55132523  0.35846126    -0.01690
Br2099     Br  0.08933622  0.53837152  0.25475911    -0.01650
Br2100     Br  0.04626373  0.58164236  0.25582044    -0.01630
C2101       C  0.07891147  0.63599484  0.40277361    -0.02760
C2102       C  0.07505974  0.65289052  0.42202894     0.06920
C2103       C  0.05261712  0.66624913  0.42330492    -0.02870
C2104       C  0.03411139  0.66263919  0.40503997    -0.02870
C2105       C  0.03626794  0.64231902  0.38800342     0.07050
C2106       C  0.05868655  0.62804621  0.38854370    -0.03070
Br2107     Br  0.06242001  0.59568401  0.37392837    -0.01620
Br2108     Br  0.11225493  0.62480213  0.39493502    -0.01690
Br2109     Br  0.00609259  0.68546208  0.40524451    -0.01650
Br2110     Br  0.04748728  0.68931192  0.45024806    -0.01630
C2111       C  0.91173943  0.52658544  0.32274180    -0.02760
C2112       C  0.89184663  0.52828039  0.30555237     0.06920
C2113       C  0.89069230  0.54865975  0.28905548    -0.02870
C2114       C  0.90915807  0.56729748  0.28984389    -0.02870
C2115       C  0.92919103  0.56517798  0.30666777     0.07050
C2116       C  0.93070209  0.54439036  0.32255178    -0.03070
Br2117     Br  0.95878652  0.54010991  0.34449798    -0.01620
Br2118     Br  0.91252989  0.50102790  0.34826803    -0.01690
Br2119     Br  0.90567741  0.59682418  0.26980365    -0.01650
Br2120     Br  0.86227302  0.55272995  0.26774956    -0.01630
C2121       C  0.06958521  0.54837602  0.66379976    -0.02760
C2122       C  0.06871369  0.52872424  0.64653146     0.06920
C2123       C  0.04714119  0.52572410  0.63183543    -0.02870
C2124       C  0.02719244  0.54259975  0.63368483    -0.02870
C2125       C  0.02874122  0.56306406  0.64984384     0.07050
C2126       C  0.04939508  0.56519941  0.66592591    -0.03070
Br2127     Br  0.05060838  0.59151165  0.69020227    -0.01620
Br2128     Br  0.09951767  0.55411947  0.68230726    -0.01690
Br2129     Br  0.99727523  0.53748208  0.61424991    -0.01650
Br2130     Br  0.04483231  0.49899440  0.60838178    -0.01630
C2131       C  0.03819701  0.66691546  0.55544816    -0.02760
C2132       C  0.03555660  0.64503209  0.56982139     0.06920
C2133       C  0.05375208  0.62621981  0.56767345    -0.02870
C2134       C  0.07527782  0.63052992  0.55366495    -0.02870
C2135       C  0.07568136  0.64952190  0.53562048     0.07050
C2136       C  0.05759253  0.66876381  0.53754477    -0.03070
Br2137     Br  0.05976690  0.69833933  0.51740411    -0.01620
Br2138     Br  0.01404712  0.69341672  0.55886943    -0.01690
Br2139     Br  0.10595267  0.61486233  0.56408922    -0.01650
Br2140     Br  0.04914986  0.59351959  0.58152951    -0.01630
C2141       C  0.91531368  0.64702394  0.42994438    -0.02760
C2142       C  0.89016619  0.64916419  0.42274783     0.06920
C2143       C  0.88384288  0.64951617  0.39732612    -0.02870
C2144       C  0.90268571  0.64791962  0.37908342    -0.02870
C2145       C  0.92797509  0.64612414  0.38622171     0.07050
C2146       C  0.93408035  0.64472511  0.41182981    -0.03070
Br2147     Br  0.96761099  0.63709152  0.42278227    -0.01620
Br2148     Br  0.92404007  0.64516266  0.46478369    -0.01690
Br2149     Br  0.89348136  0.64372021  0.34469719    -0.01650
Br2150     Br  0.84921237  0.65114295  0.38760828    -0.01630
C2151       C  0.83369431  0.56651355  0.40819115    -0.02760
C2152       C  0.81095836  0.57519145  0.41853671     0.06920
C2153       C  0.78820085  0.56605095  0.40891132    -0.02870
C2154       C  0.78829017  0.54788069  0.38984955    -0.02870
C2155       C  0.81112380  0.53923458  0.37971062     0.07050
C2156       C  0.83364287  0.54965856  0.38838562    -0.03070
Br2157     Br  0.86524587  0.54162975  0.37314457    -0.01620
Br2158     Br  0.86588138  0.57618577  0.42132172    -0.01690
Br2159     Br  0.75714262  0.53336787  0.37957138    -0.01650
Br2160     Br  0.75691226  0.57583317  0.42380964    -0.01630
C2161       C  0.90215475  0.62367566  0.53800336    -0.02760
C2162       C  0.89106716  0.64649701  0.53072506     0.06920
C2163       C  0.90018447  0.66880934  0.54109689    -0.02870
C2164       C  0.91788066  0.66805912  0.56055111    -0.02870
C2165       C  0.92884770  0.64516469  0.56759948     0.07050
C2166       C  0.92209727  0.62332388  0.55475328    -0.03070
Br2167     Br  0.94143450  0.59282833  0.55797269    -0.01620
Br2168     Br  0.89021478  0.59200662  0.52613984    -0.01690
Br2169     Br  0.92641564  0.69845780  0.57746673    -0.01650
Br2170     Br  0.89117547  0.70044070  0.52681043    -0.01630
C2171       C  0.93420503  0.41389653  0.30646433    -0.02760
C2172       C  0.92919350  0.38847425  0.30205331     0.06920
C2173       C  0.90470012  0.38168336  0.29449419    -0.02870
C2174       C  0.88511103  0.39938146  0.29504554    -0.02870
C2175       C  0.89012650  0.42428279  0.30148808     0.07050
C2176       C  0.91514083  0.43163217  0.30385170    -0.03070
Br2177     Br  0.92394813  0.46572279  0.29785736    -0.01620
Br2178     Br  0.96683244  0.42557756  0.31613378    -0.01690
Br2179     Br  0.85177938  0.38923066  0.28633213    -0.01650
Br2180     Br  0.89683271  0.34803969  0.28477498    -0.01630
C2181       C  0.06526546  0.37838859  0.31143422    -0.02760
C2182       C  0.04166097  0.38410908  0.30098941     0.06920
C2183       C  0.03881331  0.40667248  0.28774090    -0.02870
C2184       C  0.05756161  0.42501421  0.28903715    -0.02870
C2185       C  0.08024817  0.41996476  0.30157638     0.07050
C2186       C  0.08471910  0.39585378  0.31077656    -0.03070
Br2187     Br  0.11794396  0.38641370  0.32142235    -0.01620
Br2188     Br  0.07152249  0.34643906  0.32639224    -0.01690
Br2189     Br  0.05091145  0.45761293  0.27537451    -0.01650
Br2190     Br  0.00933502  0.41308499  0.26813966    -0.01630
C2191       C  0.03040443  0.30837849  0.40884773    -0.02760
C2192       C  0.03750990  0.30366809  0.38399082     0.06920
C2193       C  0.06237270  0.29645239  0.37885825    -0.02870
C2194       C  0.08065832  0.29790790  0.39763439    -0.02870
C2195       C  0.07392719  0.30419507  0.42231681     0.07050
C2196       C  0.04842940  0.30900251  0.42781313    -0.03070
Br2197     Br  0.03731864  0.31746552  0.46102714    -0.01620
Br2198     Br  0.99545277  0.31235376  0.41750572    -0.01690
Br2199     Br  0.11521106  0.29525267  0.38805591    -0.01650
Br2200     Br  0.07192527  0.28441110  0.34634463    -0.01630
C2201       C  0.88078836  0.55945501  0.64296522    -0.02760
C2202       C  0.88490178  0.53756141  0.65706858     0.06920
C2203       C  0.90457345  0.53718570  0.67459362    -0.02870
C2204       C  0.92305083  0.55571906  0.67361907    -0.02870
C2205       C  0.92093859  0.57526810  0.65634026     0.07050
C2206       C  0.89892111  0.57819044  0.64249758    -0.03070
Br2207     Br  0.89388410  0.60762232  0.62256464    -0.01620
Br2208     Br  0.84992202  0.56437687  0.62494004    -0.01690
Br2209     Br  0.95190315  0.55384567  0.69498941    -0.01650
Br2210     Br  0.90633080  0.51222133  0.70025244    -0.01630
C2211       C  0.83080435  0.54914106  0.52637229    -0.02760
C2212       C  0.81374159  0.56897304  0.52794304     0.06920
C2213       C  0.79729540  0.57030022  0.54824908    -0.02870
C2214       C  0.79855494  0.55241854  0.56754549    -0.02870
C2215       C  0.81718390  0.53334630  0.56725406     0.07050
C2216       C  0.83342049  0.53211124  0.54611062    -0.03070
Br2217     Br  0.86053351  0.50824896  0.54296461    -0.01620
Br2218     Br  0.85015507  0.54480593  0.49615850    -0.01690
Br2219     Br  0.77455198  0.55546981  0.59409677    -0.01650
Br2220     Br  0.77359595  0.59733927  0.55001956    -0.01630
C2221       C  0.83311651  0.41538089  0.42921930    -0.02760
C2222       C  0.81430116  0.39717319  0.43038512     0.06920
C2223       C  0.79274372  0.39972441  0.41547660    -0.02870
C2224       C  0.79147235  0.41880383  0.39748877    -0.02870
C2225       C  0.81225469  0.43447709  0.39376287     0.07050
C2226       C  0.83223253  0.43380596  0.41081088    -0.03070
Br2227     Br  0.85824831  0.45861174  0.40944321    -0.01620
Br2228     Br  0.85999774  0.41552068  0.45323326    -0.01690
Br2229     Br  0.76178195  0.42246294  0.37742775    -0.01650
Br2230     Br  0.76576837  0.37620486  0.41820342    -0.01630
C2231       C  0.90412555  0.28851785  0.41111407    -0.02760
C2232       C  0.88894052  0.30979766  0.41389740     0.06920
C2233       C  0.89205845  0.33006043  0.39768023    -0.02870
C2234       C  0.90854221  0.32824528  0.37778715    -0.02870
C2235       C  0.92683005  0.30922277  0.37734117     0.07050
C2236       C  0.92388100  0.28858677  0.39361963    -0.03070
Br2237     Br  0.94668352  0.26069460  0.39327444    -0.01620
Br2238     Br  0.89980500  0.26066475  0.43339300    -0.01690
Br2239     Br  0.90412750  0.35158622  0.35082353    -0.01650
Br2240     Br  0.87685069  0.36206043  0.40368891    -0.01630
C2241       C  0.84399226  0.39382717  0.54492170    -0.02760
C2242       C  0.82116285  0.38673569  0.53395981     0.06920
C2243       C  0.79910294  0.39963876  0.54020388    -0.02870
C2244       C  0.79977778  0.41947617  0.55735806    -0.02870
C2245       C  0.82269367  0.42634508  0.56883282     0.07050
C2246       C  0.84497516  0.41379794  0.56155347    -0.03070
Br2247     Br  0.87809391  0.42477044  0.57156449    -0.01620
Br2248     Br  0.87478212  0.37637346  0.53744800    -0.01690
Br2249     Br  0.76912565  0.43777757  0.56293040    -0.01650
Br2250     Br  0.76811690  0.39143327  0.52374686    -0.01630
C2251       C  0.05701947  0.26255501  0.65899195    -0.02760
C2252       C  0.04309247  0.27971108  0.67330258     0.06920
C2253       C  0.05428004  0.29012081  0.69456299    -0.02870
C2254       C  0.08034811  0.28889497  0.69776269    -0.02870
C2255       C  0.09514647  0.27453419  0.68112645     0.07050
C2256       C  0.08264742  0.25898456  0.66391447    -0.03070
Br2257     Br  0.09956974  0.23098562  0.64881215    -0.01620
Br2258     Br  0.04184470  0.24419027  0.63218767    -0.01690
Br2259     Br  0.09467202  0.30786241  0.72469153    -0.01650
Br2260     Br  0.03343755  0.30500319  0.71997849    -0.01630
C2261       C  0.05491389  0.38555357  0.66265912    -0.02760
C2262       C  0.03484279  0.38728558  0.64580836     0.06920
C2263       C  0.03452316  0.40634288  0.62807141    -0.02870
C2264       C  0.05511624  0.42191475  0.62538290    -0.02870
C2265       C  0.07441561  0.42226943  0.64362363     0.07050
C2266       C  0.07428976  0.40341367  0.66220541    -0.03070
Br2267     Br  0.10119107  0.40004749  0.68588963    -0.01620
Br2268     Br  0.05662366  0.35788552  0.68525529    -0.01690
Br2269     Br  0.05767377  0.43850563  0.59365842    -0.01650
Br2270     Br  0.00556485  0.41107232  0.60685134    -0.01630
C2271       C  0.03779506  0.29101597  0.54877114    -0.02760
C2272       C  0.04109727  0.30514634  0.57044130     0.06920
C2273       C  0.06383877  0.31731470  0.57472519    -0.02870
C2274       C  0.08225902  0.31767836  0.55606320    -0.02870
C2275       C  0.07788306  0.30582227  0.53298739     0.07050
C2276       C  0.05647277  0.29064058  0.53034782    -0.03070
Br2277     Br  0.05210586  0.26899613  0.50209145    -0.01620
Br2278     Br  0.00713506  0.27286060  0.54410524    -0.01690
Br2279     Br  0.11406266  0.33304646  0.56299905    -0.01650
Br2280     Br  0.06950503  0.33375359  0.60607409    -0.01630
C2281       C  0.93432639  0.40793082  0.65773940    -0.02760
C2282       C  0.92730195  0.38382832  0.65053435     0.06920
C2283       C  0.90187153  0.37861452  0.64622666    -0.02870
C2284       C  0.88379145  0.39783728  0.64772992    -0.02870
C2285       C  0.89115732  0.42241968  0.65333181     0.07050
C2286       C  0.91649428  0.42718355  0.65867072    -0.03070
Br2287     Br  0.92716980  0.46023059  0.66700083    -0.01620
Br2288     Br  0.96850283  0.41447845  0.66693967    -0.01690
Br2289     Br  0.84935949  0.39083396  0.63993600    -0.01650
Br2290     Br  0.89212771  0.34545729  0.63683531    -0.01630
C2291       C  0.94005626  0.32195244  0.53845555    -0.02760
C2292       C  0.93514873  0.30855377  0.56047719     0.06920
C2293       C  0.91436878  0.29263467  0.56152526    -0.02870
C2294       C  0.89810560  0.29077993  0.54104171    -0.02870
C2295       C  0.90132595  0.30661661  0.52038842     0.07050
C2296       C  0.92298991  0.32126775  0.51862790    -0.03070
Br2297     Br  0.92937956  0.34007557  0.48867777    -0.01620
Br2298     Br  0.97006065  0.34143607  0.53543927    -0.01690
Br2299     Br  0.87144082  0.26681955  0.54158079    -0.01650
Br2300     Br  0.90652759  0.27558400  0.59189709    -0.01630
C2301       C  0.55500640  0.16636155  0.42014290    -0.02760
C2302       C  0.57821008  0.15442423  0.41781652     0.06920
C2303       C  0.58311467  0.13955957  0.39704322    -0.02870
C2304       C  0.56364908  0.13315426  0.38079002    -0.02870
C2305       C  0.53966194  0.14436382  0.38315484     0.07050
C2306       C  0.53608894  0.16232221  0.40236491    -0.03070
Br2307     Br  0.50533320  0.18089872  0.40617836    -0.01620
Br2308     Br  0.54938878  0.18798323  0.44825178    -0.01690
Br2309     Br  0.57064820  0.10776107  0.35672765    -0.01650
Br2310     Br  0.61678127  0.12782839  0.39119108    -0.01630
C2311       C  0.26871069  0.15707566  0.54996908    -0.02760
C2312       C  0.28491508  0.17263638  0.53622338     0.06920
C2313       C  0.29454876  0.19399109  0.54801446    -0.02870
C2314       C  0.29216768  0.19714926  0.57398486    -0.02870
C2315       C  0.27917989  0.17941890  0.58850838     0.07050
C2316       C  0.26568207  0.16054473  0.57589252    -0.03070
Br2317     Br  0.24300868  0.13875570  0.59347810    -0.01620
Br2318     Br  0.25048259  0.13071993  0.53383412    -0.01690
Br2319     Br  0.30535311  0.22689852  0.58905352    -0.01650
Br2320     Br  0.30943423  0.21998254  0.52811949    -0.01630
C2321       C  0.38986063  0.15581446  0.40113438    -0.02760
C2322       C  0.39512328  0.14764316  0.42550962     0.06920
C2323       C  0.41978226  0.14010647  0.43102425    -0.02870
C2324       C  0.43734979  0.13612425  0.41184025    -0.02870
C2325       C  0.43067476  0.14046543  0.38666877     0.07050
C2326       C  0.40669898  0.15055920  0.38166671    -0.03070
Br2327     Br  0.39493371  0.15478959  0.34820867    -0.01620
Br2328     Br  0.36162512  0.17718146  0.39435669    -0.01690
Br2329     Br  0.47054054  0.12515834  0.42094099    -0.01650
Br2330     Br  0.43077577  0.13956469  0.46517390    -0.01630
C2331       C  0.38225625  0.16567321  0.69303576    -0.02760
C2332       C  0.36881523  0.18133406  0.67632373     0.06920
C2333       C  0.38281239  0.19789480  0.66114333    -0.02870
C2334       C  0.40915332  0.19687583  0.66113120    -0.02870
C2335       C  0.42196185  0.17763074  0.67369638     0.07050
C2336       C  0.40856604  0.16334832  0.69125523    -0.03070
Br2337     Br  0.42578666  0.14036908  0.71297396    -0.01620
Br2338     Br  0.36533163  0.14793404  0.71942587    -0.01690
Br2339     Br  0.42811449  0.22294787  0.64512923    -0.01650
Br2340     Br  0.36693073  0.22141493  0.63888160    -0.01630
C2341       C  0.55366316  0.16778603  0.56655992    -0.02760
C2342       C  0.53183702  0.15296169  0.56375164     0.06920
C2343       C  0.52717042  0.14281024  0.53996248    -0.02870
C2344       C  0.54591616  0.14260242  0.52159052    -0.02870
C2345       C  0.56924922  0.15355907  0.52624329     0.07050
C2346       C  0.57273842  0.16701624  0.54833507    -0.03070
Br2347     Br  0.60424010  0.18315096  0.55420729    -0.01620
Br2348     Br  0.55716539  0.19137860  0.59335238    -0.01690
Br2349     Br  0.53952057  0.12732050  0.48975262    -0.01650
Br2350     Br  0.49402964  0.13288736  0.53071189    -0.01630
C2351       C  0.40981716  0.12271732  0.53241695    -0.02760
C2352       C  0.39238194  0.14242836  0.53069540     0.06920
C2353       C  0.39287424  0.16195809  0.54804778    -0.02870
C2354       C  0.41109787  0.16206656  0.56683634    -0.02870
C2355       C  0.42846680  0.14239894  0.56858406     0.07050
C2356       C  0.42739755  0.12240245  0.55158364    -0.03070
Br2357     Br  0.44926021  0.09366433  0.55447475    -0.01620
Br2358     Br  0.40979912  0.09550533  0.50873054    -0.01690
Br2359     Br  0.41022626  0.18757099  0.59181741    -0.01650
Br2360     Br  0.36703254  0.18700865  0.54789829    -0.01630
C2361       C  0.41746463  0.02010634  0.29712596    -0.02760
C2362       C  0.39275554  0.02763636  0.30204188     0.06920
C2363       C  0.38743093  0.05299577  0.30598292    -0.02870
C2364       C  0.40678433  0.07053468  0.30468701    -0.02870
C2365       C  0.43181355  0.06249367  0.30316872     0.07050
C2366       C  0.43701551  0.03697853  0.30064696    -0.03070
Br2367     Br  0.46971813  0.02415412  0.30786031    -0.01620
Br2368     Br  0.42495037  0.98669734  0.28655565    -0.01690
Br2369     Br  0.39910040  0.10540587  0.30614038    -0.01650
Br2370     Br  0.35393446  0.06362374  0.31410998    -0.01630
C2371       C  0.29389223  0.04605655  0.39016213    -0.02760
C2372       C  0.31630886  0.03461261  0.38211649     0.06920
C2373       C  0.33872709  0.03954052  0.39505943    -0.02870
C2374       C  0.33814637  0.05214776  0.41763318    -0.02870
C2375       C  0.31630043  0.06482822  0.42510990     0.05130
C2376       C  0.29412522  0.06201730  0.41104479    -0.03070
Br2377     Br  0.26416693  0.08017736  0.41961672    -0.01620
Br2378     Br  0.26278855  0.03984176  0.37323517    -0.01690
Br2379     Br  0.36733563  0.05003160  0.43895356    -0.01650
Br2380     Br  0.37115247  0.03058084  0.38164924    -0.01630
C2381       C  0.41092145  0.88204097  0.28886868    -0.02760
C2382       C  0.43242519  0.88450523  0.30360120     0.06920
C2383       C  0.43580381  0.90593022  0.31794470    -0.02870
C2384       C  0.41687294  0.92392574  0.31967292    -0.02870
C2385       C  0.39399957  0.92097365  0.30620968     0.07050
C2386       C  0.39140736  0.89974068  0.29059871    -0.03070
Br2387     Br  0.36087488  0.89294548  0.27268044    -0.01620
Br2388     Br  0.40838081  0.85450344  0.26607537    -0.01690
Br2389     Br  0.42376751  0.95159472  0.34186780    -0.01650
Br2390     Br  0.46734280  0.91098555  0.33481864    -0.01630
C2391       C  0.28168753  0.05821138  0.64200127    -0.02760
C2392       C  0.28382793  0.04129457  0.66223103     0.06920
C2393       C  0.28231093  0.05096583  0.68665231    -0.02870
C2394       C  0.28047743  0.07696184  0.69048996    -0.02870
C2395       C  0.28267407  0.09364853  0.67007884     0.07050
C2396       C  0.28437663  0.08376026  0.64591035    -0.03070
Br2397     Br  0.29383741  0.10430487  0.61791763    -0.01620
Br2398     Br  0.27218046  0.04808350  0.60885904    -0.01690
Br2399     Br  0.27401130  0.08908197  0.72372487    -0.01650
Br2400     Br  0.28025368  0.02877506  0.71485258    -0.01630
C2401       C  0.38296972  0.05955026  0.65835379    -0.02760
C2402       C  0.39072159  0.03442098  0.65561836     0.06920
C2403       C  0.41658341  0.02902985  0.65667535    -0.02870
C2404       C  0.43369882  0.04817509  0.66073459    -0.02870
C2405       C  0.42650047  0.07296756  0.65723136     0.07050
C2406       C  0.40082557  0.07882638  0.65676285    -0.03070
Br2407     Br  0.39008100  0.11275897  0.65252600    -0.01620
Br2408     Br  0.34840241  0.06808091  0.66389413    -0.01690
Br2409     Br  0.46560488  0.04087659  0.67547786    -0.01650
Br2410     Br  0.42975571  0.99612681  0.65149046    -0.01630
C2411       C  0.32889948  0.05408156  0.57254974    -0.02760
C2412       C  0.31749094  0.03057252  0.56880491     0.06920
C2413       C  0.30128783  0.02754179  0.54810195    -0.02870
C2414       C  0.29798597  0.04712219  0.53092975    -0.02870
C2415       C  0.31025517  0.06983820  0.53444747     0.07050
C2416       C  0.32459661  0.07370685  0.55583253    -0.03070
Br2417     Br  0.33863404  0.10614393  0.56195943    -0.01620
Br2418     Br  0.35099419  0.06035710  0.60004950    -0.01690
Br2419     Br  0.27706477  0.04298063  0.50201886    -0.01650
Br2420     Br  0.28489534  0.99632563  0.54144191    -0.01630
C2421       C  0.29712326  0.89420465  0.41198745    -0.02760
C2422       C  0.31840569  0.89199583  0.42738926     0.06920
C2423       C  0.33660737  0.91082267  0.42710362    -0.02870
C2424       C  0.33521973  0.92996799  0.40945635    -0.02870
C2425       C  0.31554652  0.93055380  0.39204504     0.07050
C2426       C  0.29542707  0.91388219  0.39467355    -0.03070
Br2427     Br  0.26593737  0.91736845  0.37430769    -0.01620
Br2428     Br  0.27110700  0.86950892  0.41316168    -0.01690
Br2429     Br  0.35990938  0.95609374  0.40983159    -0.01650
Br2430     Br  0.36316843  0.91098547  0.45145188    -0.01630
C2431       C  0.39106040  0.79183825  0.39954604    -0.02760
C2432       C  0.39710605  0.79601192  0.42434745     0.06920
C2433       C  0.42242630  0.79903317  0.43057405    -0.02870
C2434       C  0.44030105  0.80174217  0.41149701    -0.02870
C2435       C  0.43218680  0.80309965  0.38644265     0.07050
C2436       C  0.40642351  0.80215862  0.38157651    -0.03070
Br2437     Br  0.39178491  0.83291124  0.37065353    -0.01620
Br2438     Br  0.36184755  0.77400256  0.38994139    -0.01690
Br2439     Br  0.47487133  0.80600348  0.42020894    -0.01650
Br2440     Br  0.43264783  0.79542377  0.46462550    -0.01630
C2441       C  0.34373962  0.89229270  0.54363303    -0.02760
C2442       C  0.32107734  0.88413194  0.53294261     0.06920
C2443       C  0.29819262  0.89332362  0.54242134    -0.02870
C2444       C  0.29810689  0.91111442  0.56169157    -0.02870
C2445       C  0.32091208  0.91965000  0.57175124     0.07050
C2446       C  0.34364744  0.90963104  0.56299825    -0.03070
Br2447     Br  0.37530909  0.91903611  0.57763316    -0.01620
Br2448     Br  0.37568608  0.87998093  0.53254003    -0.01690
Br2449     Br  0.26663981  0.92502271  0.57266400    -0.01650
Br2450     Br  0.26684824  0.88335674  0.52779929    -0.01630
C2451       C  0.55171040  0.88918270  0.28366481    -0.02760
C2452       C  0.54062148  0.88062364  0.30596147     0.06920
C2453       C  0.54836995  0.89077540  0.32895733    -0.02870
C2454       C  0.56735625  0.90848431  0.32964092    -0.02870
C2455       C  0.57769736  0.91800828  0.30743651     0.07050
C2456       C  0.56990941  0.90812525  0.28437729    -0.03070
Br2457     Br  0.58238918  0.92185094  0.25359299    -0.01620
Br2458     Br  0.54022712  0.87704783  0.25192117    -0.01690
Br2459     Br  0.57942002  0.91859733  0.36178645    -0.01650
Br2460     Br  0.53308353  0.88140819  0.36040309    -0.01630
C2461       C  0.58462047  0.05449594  0.29928633    -0.02760
C2462       C  0.57715733  0.02954151  0.29594909     0.06920
C2463       C  0.55329949  0.02471267  0.28601722    -0.02870
C2464       C  0.53604984  0.04435975  0.28339026    -0.02870
C2465       C  0.54181865  0.06801963  0.29261821     0.07050
C2466       C  0.56698281  0.07383656  0.29676169    -0.03070
Br2467     Br  0.57751315  0.10792213  0.29483069    -0.01620
Br2468     Br  0.61885889  0.06224812  0.30695353    -0.01690
Br2469     Br  0.50756167  0.04097871  0.26202494    -0.01650
Br2470     Br  0.54345428  0.99138710  0.27757135    -0.01630
C2471       C  0.62566460  0.04825425  0.38814562    -0.02760
C2472       C  0.64853339  0.03713192  0.38126432     0.06920
C2473       C  0.67000738  0.04152986  0.39570661    -0.02870
C2474       C  0.66860324  0.05711185  0.41681188    -0.02870
C2475       C  0.64557776  0.06870220  0.42332911     0.07050
C2476       C  0.62381501  0.06244699  0.40976976    -0.03070
Br2477     Br  0.59034348  0.06944749  0.42218009    -0.01620
Br2478     Br  0.59595303  0.04390868  0.36834963    -0.01690
Br2479     Br  0.69775370  0.05943799  0.43787048    -0.01650
Br2480     Br  0.70094279  0.02467142  0.38776896    -0.01630
C2481       C  0.42982926  0.90639066  0.66964594    -0.02760
C2482       C  0.42584963  0.88452690  0.65585802     0.06920
C2483       C  0.40202835  0.87976825  0.64600660    -0.02870
C2484       C  0.38341329  0.89832602  0.64686737    -0.02870
C2485       C  0.38853445  0.92168689  0.65769818     0.07050
C2486       C  0.41072490  0.92444662  0.67156195    -0.03070
Br2487     Br  0.41462348  0.95179540  0.69421320    -0.01620
Br2488     Br  0.46175389  0.91186738  0.68520508    -0.01690
Br2489     Br  0.35033224  0.89123350  0.63461296    -0.01650
Br2490     Br  0.39525311  0.84812236  0.63066773    -0.01630
C2491       C  0.43529379  0.82834425  0.54637968    -0.02760
C2492       C  0.43295284  0.81178324  0.56656149     0.06920
C2493       C  0.41511181  0.79263352  0.56569332    -0.02870
C2494       C  0.39896629  0.79056428  0.54515782    -0.02870
C2495       C  0.40031680  0.80810326  0.52570369     0.07050
C2496       C  0.41917218  0.82644233  0.52598104    -0.03070
Br2497     Br  0.42321527  0.84931796  0.49838309    -0.01620
Br2498     Br  0.46074682  0.85376872  0.54639342    -0.01690
Br2499     Br  0.37402907  0.76476570  0.54473283    -0.01650
Br2500     Br  0.41105005  0.77077595  0.59365878    -0.01630
C2501       C  0.58067028  0.81796543  0.39365042    -0.02760
C2502       C  0.57732738  0.80403759  0.41553359     0.06920
C2503       C  0.55879748  0.78558084  0.41628978    -0.02870
C2504       C  0.54058948  0.78446276  0.39737870    -0.02870
C2505       C  0.54150694  0.80158996  0.37730962     0.07050
C2506       C  0.56342445  0.81580636  0.37409907    -0.03070
Br2507     Br  0.57152178  0.82951380  0.34188645    -0.01620
Br2508     Br  0.60923682  0.83937713  0.39014152    -0.01690
Br2509     Br  0.51554279  0.75882776  0.39915595    -0.01650
Br2510     Br  0.55885761  0.76157905  0.44297449    -0.01630
C2511       C  0.67164507  0.90371798  0.42202119    -0.02760
C2512       C  0.64892792  0.89609353  0.43304590     0.06920
C2513       C  0.62748949  0.91108528  0.42929444    -0.02870
C2514       C  0.62792618  0.93048624  0.41177878    -0.02870
C2515       C  0.64869350  0.93336260  0.39589695     0.07050
C2516       C  0.67120882  0.92090860  0.40207649    -0.03070
Br2517     Br  0.70125663  0.92614302  0.38297231    -0.01620
Br2518     Br  0.70334875  0.89279511  0.43528283    -0.01690
Br2519     Br  0.60125197  0.95482542  0.41152330    -0.01650
Br2520     Br  0.59794744  0.90661820  0.44953187    -0.01630
C2521       C  0.57892454  0.81006412  0.55391501    -0.02760
C2522       C  0.57058413  0.80581379  0.52930973     0.06920
C2523       C  0.54513399  0.80090360  0.52513260    -0.02870
C2524       C  0.52816021  0.80060035  0.54519981    -0.02870
C2525       C  0.53624052  0.80629650  0.56950920     0.07050
C2526       C  0.56181506  0.81030103  0.57392883    -0.03070
Br2527     Br  0.57309834  0.81773131  0.60718312    -0.01620
Br2528     Br  0.61366027  0.81698374  0.56014434    -0.01690
Br2529     Br  0.49374473  0.79214375  0.53930863    -0.01650
Br2530     Br  0.53287569  0.79749451  0.49167822    -0.01630
C2531       C  0.57595737  0.05609235  0.65811540    -0.02760
C2532       C  0.57084014  0.03099001  0.65314438     0.06920
C2533       C  0.54574679  0.02424090  0.64924340    -0.02870
C2534       C  0.52802341  0.04272161  0.64402379    -0.02870
C2535       C  0.53284967  0.06732152  0.65133877     0.07050
C2536       C  0.55631541  0.07301230  0.66131636    -0.03070
Br2537     Br  0.56196571  0.10304152  0.67965126    -0.01620
Br2538     Br  0.60834510  0.06937472  0.65327043    -0.01690
Br2539     Br  0.49969413  0.03436922  0.62374002    -0.01650
Br2540     Br  0.53456197  0.99092235  0.65504129    -0.01630
C2541       C  0.66698217  0.03532875  0.55351707    -0.02760
C2542       C  0.64390672  0.02646695  0.56306682     0.06920
C2543       C  0.62143033  0.03779649  0.55472720    -0.02870
C2544       C  0.62217650  0.05951039  0.54039119    -0.02870
C2545       C  0.64495921  0.06803513  0.53045846     0.07050
C2546       C  0.66724886  0.05516616  0.53624828    -0.03070
Br2547     Br  0.69789917  0.06318814  0.51916175    -0.01620
Br2548     Br  0.69861247  0.02164567  0.56432045    -0.01690
Br2549     Br  0.59152412  0.07806735  0.53565719    -0.01650
Br2550     Br  0.58888928  0.02323616  0.56096825    -0.01630
C2551       C  0.57149232  0.90808796  0.66796727    -0.02760
C2552       C  0.57021530  0.92808651  0.65108806     0.06920
C2553       C  0.55023144  0.92943251  0.63386111    -0.02870
C2554       C  0.53118184  0.91170908  0.63451082    -0.02870
C2555       C  0.53318270  0.89095813  0.65032972     0.07050
C2556       C  0.55326752  0.88925247  0.66720156    -0.03070
Br2557     Br  0.55738115  0.86001187  0.68729770    -0.01620
Br2558     Br  0.59996891  0.90469008  0.68961161    -0.01690
Br2559     Br  0.50221801  0.91587274  0.61341460    -0.01650
Br2560     Br  0.54977196  0.95378417  0.60720135    -0.01630
C2561       C  0.66933123  0.91298834  0.55955079    -0.02760
C2562       C  0.64759175  0.91812820  0.57351514     0.06920
C2563       C  0.62556819  0.90478077  0.56869730    -0.02870
C2564       C  0.62429953  0.88864517  0.54851731    -0.02870
C2565       C  0.64609219  0.88271035  0.53512918     0.07050
C2566       C  0.66884300  0.89448272  0.54104502    -0.03070
Br2567     Br  0.69866014  0.88736716  0.52205581    -0.01620
Br2568     Br  0.69890433  0.93288743  0.56375016    -0.01690
Br2569     Br  0.59192354  0.87622781  0.53891652    -0.01650
Br2570     Br  0.59696188  0.90709988  0.59010082    -0.01630
C2571       C  0.30798521  0.39576015  0.79994870    -0.02760
C2572       C  0.29620607  0.41430993  0.78538497     0.06920
C2573       C  0.28005077  0.40654365  0.76617317    -0.02870
C2574       C  0.27571504  0.38073637  0.76214376    -0.02870
C2575       C  0.28759334  0.36259326  0.77724081     0.07050
C2576       C  0.30358770  0.37039478  0.79614078    -0.03070
Br2577     Br  0.31883985  0.34607273  0.81774983    -0.01620
Br2578     Br  0.33126431  0.40437378  0.82498723    -0.01690
Br2579     Br  0.25360540  0.37012768  0.73606352    -0.01650
Br2580     Br  0.26339924  0.43111726  0.74607389    -0.01630
C2581       C  0.33850896  0.56913714  0.90520856    -0.02760
C2582       C  0.31665196  0.57346599  0.91909369     0.06920
C2583       C  0.29520813  0.55906066  0.91432351    -0.02870
C2584       C  0.29588399  0.54044967  0.89582304    -0.02870
C2585       C  0.31851132  0.53501571  0.88337482     0.07050
C2586       C  0.34003774  0.54903488  0.88889092    -0.03070
Br2587     Br  0.37251419  0.54086212  0.87537928    -0.01620
Br2588     Br  0.36627781  0.59154786  0.90676795    -0.01690
Br2589     Br  0.26652658  0.52079252  0.88949612    -0.01650
Br2590     Br  0.26561091  0.56329734  0.93438966    -0.01630
C2591       C  0.44132892  0.54425071  0.82084145    -0.02760
C2592       C  0.43715504  0.56674210  0.80801139     0.06920
C2593       C  0.41583882  0.56934815  0.79291171    -0.02870
C2594       C  0.39887068  0.54965183  0.79042989    -0.02870
C2595       C  0.40174715  0.52825878  0.80523443     0.07050
C2596       C  0.42348235  0.52521008  0.81974741    -0.03070
Br2597     Br  0.42902760  0.49465915  0.83783090    -0.01620
Br2598     Br  0.47120149  0.53969099  0.84043850    -0.01690
Br2599     Br  0.37158996  0.55239149  0.76716404    -0.01650
Br2600     Br  0.40769335  0.60098257  0.77876634    -0.01630
C2601       C  0.42842987  0.63073042  0.90649903    -0.02760
C2602       C  0.42760560  0.64747439  0.88593255     0.06920
C2603       C  0.40791078  0.66541266  0.88533639    -0.02870
C2604       C  0.39055862  0.66709449  0.90518755    -0.02870
C2605       C  0.39321657  0.65185074  0.92628221     0.07050
C2606       C  0.41290229  0.63445476  0.92720091    -0.03070
Br2607     Br  0.41819807  0.61471554  0.95697909    -0.01620
Br2608     Br  0.44733929  0.59984564  0.90595747    -0.01690
Br2609     Br  0.36195319  0.68892015  0.90275237    -0.01650
Br2610     Br  0.40210682  0.68618947  0.85670470    -0.01630
C2611       C  0.54529672  0.65177613  0.93220413    -0.02760
C2612       C  0.57049765  0.65623601  0.92617825     0.06920
C2613       C  0.57602574  0.66608037  0.90247638    -0.02870
C2614       C  0.55860639  0.66338221  0.88320500    -0.02870
C2615       C  0.53441376  0.65489350  0.88845363     0.07050
C2616       C  0.52716637  0.65142752  0.91336545    -0.03070
Br2617     Br  0.49267115  0.64631241  0.92179084    -0.01620
Br2618     Br  0.53512042  0.64996537  0.96645286    -0.01690
Br2619     Br  0.56809327  0.67089150  0.84976432    -0.01650
Br2620     Br  0.60474924  0.68685125  0.89704230    -0.01630
C2621       C  0.58562652  0.56282278  0.80509808    -0.02760
C2622       C  0.57874558  0.53878551  0.79745762     0.06920
C2623       C  0.55441564  0.53444519  0.78863452    -0.02870
C2624       C  0.53636303  0.55346145  0.78964401    -0.02870
C2625       C  0.54265418  0.57692233  0.79929268     0.07050
C2626       C  0.56762814  0.58199377  0.80561152    -0.03070
Br2627     Br  0.57689498  0.61488474  0.81580630    -0.01620
Br2628     Br  0.61904388  0.56888668  0.81692836    -0.01690
Br2629     Br  0.50297105  0.54739280  0.77783718    -0.01650
Br2630     Br  0.54579683  0.50227642  0.77551110    -0.01630
C2631       C  0.66610703  0.55074420  0.88419332    -0.02760
C2632       C  0.65035834  0.52992340  0.88541069     0.06920
C2633       C  0.63626690  0.52517671  0.90700983    -0.02870
C2634       C  0.63625669  0.54230925  0.92649374    -0.02870
C2635       C  0.65054145  0.56405878  0.92460515     0.07050
C2636       C  0.66674351  0.56753654  0.90419454    -0.03070
Br2637     Br  0.68965152  0.59503857  0.90340597    -0.01620
Br2638     Br  0.68530881  0.55716966  0.85455868    -0.01690
Br2639     Br  0.61715980  0.53557944  0.95617168    -0.01650
Br2640     Br  0.61682936  0.49521142  0.91011633    -0.01630
C2641       C  0.67156191  0.39621673  0.91078849    -0.02760
C2642       C  0.64883940  0.38848844  0.92185271     0.06920
C2643       C  0.62615584  0.39877707  0.91287668    -0.02870
C2644       C  0.62612055  0.41586829  0.89305566    -0.02870
C2645       C  0.64883330  0.42465162  0.88283161     0.07050
C2646       C  0.67159689  0.41443690  0.89168810    -0.03070
Br2647     Br  0.70318031  0.42613287  0.87890132    -0.01620
Br2648     Br  0.70305249  0.38342524  0.92291859    -0.01690
Br2649     Br  0.59412594  0.42572956  0.87923499    -0.01650
Br2650     Br  0.59423544  0.38990159  0.92714135    -0.01630
C2651       C  0.30915305  0.29319286  0.89350351    -0.02760
C2652       C  0.29270934  0.28431436  0.91179601     0.06920
C2653       C  0.27163589  0.27075371  0.90391174    -0.02870
C2654       C  0.26740032  0.26711948  0.87794276    -0.02870
C2655       C  0.28519200  0.27554934  0.86024586     0.07050
C2656       C  0.30701470  0.28662893  0.86862097    -0.03070
Br2657     Br  0.33502437  0.29136651  0.84649961    -0.01620
Br2658     Br  0.33103728  0.31926042  0.90106170    -0.01690
Br2659     Br  0.23824558  0.24968900  0.86665476    -0.01650
Br2660     Br  0.24908080  0.25737105  0.92829531    -0.01630
C2661       C  0.29851243  0.39134851  0.90490356    -0.02760
C2662       C  0.31860026  0.38811982  0.92184798     0.06920
C2663       C  0.33906432  0.40505369  0.92077157    -0.02870
C2664       C  0.33831219  0.42550245  0.90481304    -0.02870
C2665       C  0.31924080  0.42772458  0.88714294     0.07050
C2666       C  0.29917306  0.41083069  0.88725158    -0.03070
Br2667     Br  0.27287683  0.41388824  0.86286405    -0.01620
Br2668     Br  0.26995114  0.36951838  0.90508847    -0.01690
Br2669     Br  0.36324886  0.45143423  0.90801428    -0.01650
Br2670     Br  0.37025164  0.40032095  0.93862315    -0.01630
C2671       C  0.40759661  0.30105902  0.76027936    -0.02760
C2672       C  0.42313428  0.28488681  0.77455169     0.06920
C2673       C  0.41209606  0.26303326  0.78446470    -0.02870
C2674       C  0.38584914  0.25959726  0.78342573    -0.02870
C2675       C  0.37014798  0.27793881  0.77271713     0.07050
C2676       C  0.38141265  0.29820381  0.76026326    -0.03070
Br2677     Br  0.36119278  0.32317561  0.74358003    -0.01620
Br2678     Br  0.42153052  0.32649605  0.73876864    -0.01690
Br2679     Br  0.37170836  0.22868152  0.79499965    -0.01650
Br2680     Br  0.43251891  0.23655892  0.79790173    -0.01630
C2681       C  0.40787240  0.38286954  0.80816029    -0.02760
C2682       C  0.43076238  0.38615326  0.79643019     0.06920
C2683       C  0.43501530  0.40852482  0.78309121    -0.02870
C2684       C  0.41668894  0.42755138  0.78423847    -0.02870
C2685       C  0.39685889  0.42510489  0.80139253     0.07050
C2686       C  0.39540181  0.40379581  0.81604906    -0.03070
Br2687     Br  0.38820275  0.40605718  0.85088373    -0.01620
Br2688     Br  0.38647342  0.36027884  0.79128167    -0.01690
Br2689     Br  0.42058046  0.45799170  0.76578314    -0.01650
Br2690     Br  0.46526011  0.41372016  0.76438901    -0.01630
C2691       C  0.54778257  0.43302332  0.81362221    -0.02760
C2692       C  0.57043445  0.43063701  0.80072931     0.06920
C2693       C  0.57466855  0.40973556  0.78561176    -0.02870
C2694       C  0.55819815  0.38938196  0.78668341    -0.02870
C2695       C  0.53547136  0.39118651  0.80020288     0.07050
C2696       C  0.52972014  0.41424424  0.81215377    -0.03070
Br2697     Br  0.49713566  0.42186700  0.82614828    -0.01620
Br2698     Br  0.54139299  0.46255297  0.83321093    -0.01690
Br2699     Br  0.56874704  0.35889498  0.77125480    -0.01650
Br2700     Br  0.60305519  0.40880106  0.76347716    -0.01630
C2701       C  0.56001283  0.30534701  0.87828224    -0.02760
C2702       C  0.53515372  0.31223318  0.88341294     0.06920
C2703       C  0.52899699  0.32231164  0.90681491    -0.02870
C2704       C  0.54751625  0.32503208  0.92505685    -0.02870
C2705       C  0.57159159  0.31515556  0.92105847     0.07050
C2706       C  0.57821522  0.30697633  0.89708141    -0.03070
Br2707     Br  0.61286054  0.30341309  0.88868429    -0.01620
Br2708     Br  0.56955773  0.29615844  0.84493283    -0.01690
Br2709     Br  0.54119448  0.34663144  0.95299545    -0.01650
Br2710     Br  0.49539848  0.33360956  0.91353024    -0.01630
C2711       C  0.43237891  0.29060781  0.90069677    -0.02760
C2712       C  0.42856333  0.30334317  0.87819094     0.06920
C2713       C  0.40795231  0.31892333  0.87574722    -0.02870
C2714       C  0.39375418  0.32553487  0.89645201    -0.02870
C2715       C  0.39551317  0.31137921  0.91866883     0.07050
C2716       C  0.41525133  0.29369409  0.92056109    -0.03070
Br2717     Br  0.42170151  0.27660151  0.95136414    -0.01620
Br2718     Br  0.46134719  0.26953706  0.90414857    -0.01690
Br2719     Br  0.37666577  0.35694457  0.89401461    -0.01650
Br2720     Br  0.39913956  0.33099011  0.84355486    -0.01630
C2721       C  0.34014710  0.55923657  0.03913211    -0.02760
C2722       C  0.31761464  0.56707440  0.02768040     0.06920
C2723       C  0.29492139  0.55570675  0.03519850    -0.02870
C2724       C  0.29465144  0.53903704  0.05563448    -0.02870
C2725       C  0.31698244  0.53322870  0.06836527     0.07050
C2726       C  0.33961478  0.54375302  0.06004153    -0.03070
Br2727     Br  0.37064204  0.53790867  0.07735443    -0.01620
Br2728     Br  0.37266805  0.56640948  0.02463825    -0.01690
Br2729     Br  0.26386866  0.52305693  0.06520706    -0.01650
Br2730     Br  0.26452609  0.56036856  0.01642674    -0.01630
C2731       C  0.29655320  0.40778176  0.06356357    -0.02760
C2732       C  0.31398332  0.42738236  0.06247099     0.06920
C2733       C  0.33084987  0.42873468  0.04251029    -0.02870
C2734       C  0.33242002  0.40927563  0.02538153    -0.02870
C2735       C  0.31672388  0.38842098  0.02760014     0.07050
C2736       C  0.29812400  0.38810195  0.04623581    -0.03070
Br2737     Br  0.27604514  0.36003142  0.04911077    -0.01620
Br2738     Br  0.27088693  0.40759559  0.08875232    -0.01690
Br2739     Br  0.35622853  0.41178425  0.99881654    -0.01650
Br2740     Br  0.35144480  0.45790866  0.03822765    -0.01630
C2741       C  0.42984116  0.40291903  0.16877141    -0.02760
C2742       C  0.42631110  0.38066548  0.15545412     0.06920
C2743       C  0.40408833  0.37724164  0.14266837    -0.02870
C2744       C  0.39009039  0.39801585  0.13589271    -0.02870
C2745       C  0.39164658  0.41950841  0.15039159     0.07050
C2746       C  0.41088934  0.42135051  0.16825786    -0.03070
Br2747     Br  0.41215081  0.44932358  0.19041351    -0.01620
Br2748     Br  0.45995304  0.40776821  0.18754363    -0.01690
Br2749     Br  0.37978691  0.40069299  0.10175382    -0.01650
Br2750     Br  0.38677363  0.34675703  0.14904957    -0.01630
C2751       C  0.41433446  0.32466066  0.06421570    -0.02760
C2752       C  0.43081867  0.30479134  0.06834702     0.06920
C2753       C  0.42931559  0.28404852  0.05212063    -0.02870
C2754       C  0.41159951  0.28430898  0.03245504    -0.02870
C2755       C  0.39849278  0.30649745  0.02677176     0.07050
C2756       C  0.40183063  0.32734354  0.04196880    -0.03070
Br2757     Br  0.38948268  0.36019779  0.03397394    -0.01620
Br2758     Br  0.40329564  0.34511647  0.09067595    -0.01690
Br2759     Br  0.40630339  0.25497622  0.01275946    -0.01650
Br2760     Br  0.45045290  0.25528547  0.05641719    -0.01630
C2761       C  0.56021691  0.29210968  0.07169108    -0.02760
C2762       C  0.53578853  0.30103005  0.06720480     0.06920
C2763       C  0.52840466  0.30491572  0.04226770    -0.02870
C2764       C  0.54615454  0.30286426  0.02309243    -0.02870
C2765       C  0.57172701  0.30146129  0.02885123     0.07050
C2766       C  0.57864662  0.29500341  0.05331954    -0.03070
Br2767     Br  0.61301471  0.29167715  0.06279056    -0.01620
Br2768     Br  0.56815567  0.27247024  0.10058308    -0.01690
Br2769     Br  0.53534299  0.29676329  0.98962420    -0.01650
Br2770     Br  0.49383147  0.31058580  0.03378062    -0.01630
C2771       C  0.52820925  0.62678259  0.04335781    -0.02760
C2772       C  0.52858608  0.64467375  0.06242768     0.06920
C2773       C  0.54750607  0.66283676  0.06275215    -0.02870
C2774       C  0.56678067  0.66213309  0.04484122    -0.02870
C2775       C  0.56763095  0.64268575  0.02721826     0.07050
C2776       C  0.54812516  0.62503360  0.02655122    -0.03070
Br2777     Br  0.54814893  0.59795785  0.00283397    -0.01620
Br2778     Br  0.49977743  0.60498047  0.03965179    -0.01690
Br2779     Br  0.59298219  0.68663801  0.04600883    -0.01650
Br2780     Br  0.54808840  0.68771166  0.08853600    -0.01630
C2781       C  0.38652160  0.55201953  0.14943417    -0.02760
C2782       C  0.39442818  0.52716188  0.14728669     0.06920
C2783       C  0.42008466  0.52140992  0.14644412    -0.02870
C2784       C  0.43776812  0.54058706  0.14766718    -0.02870
C2785       C  0.42972185  0.56546764  0.14969266     0.07050
C2786       C  0.40419076  0.57094070  0.15208321    -0.03070
Br2787     Br  0.39360354  0.60413658  0.16007799    -0.01620
Br2788     Br  0.35183972  0.56058499  0.14529693    -0.01690
Br2789     Br  0.47287936  0.53279898  0.14530335    -0.01650
Br2790     Br  0.43092589  0.48782536  0.14001765    -0.01630
C2791       C  0.42999702  0.66154193  0.04708141    -0.02760
C2792       C  0.42321916  0.65487049  0.07156006     0.06920
C2793       C  0.39779279  0.65152661  0.07740124    -0.02870
C2794       C  0.37960125  0.65217575  0.05847090    -0.02870
C2795       C  0.38671086  0.65699518  0.03369655     0.07050
C2796       C  0.41175825  0.66285027  0.02827975    -0.03070
Br2797     Br  0.42101225  0.67272691  0.99500556    -0.01620
Br2798     Br  0.46432644  0.66887091  0.03921876    -0.01690
Br2799     Br  0.34537489  0.64414477  0.06610149    -0.01650
Br2800     Br  0.38797475  0.64463639  0.11098831    -0.01630
C2801       C  0.67407408  0.53668458  0.05973227    -0.02760
C2802       C  0.65416640  0.51968398  0.06142299     0.06920
C2803       C  0.63371651  0.52231443  0.04531486    -0.02870
C2804       C  0.63048573  0.54411641  0.03149320    -0.02870
C2805       C  0.65029472  0.56149642  0.02919289     0.07050
C2806       C  0.67253573  0.55714530  0.04312041    -0.03070
Br2807     Br  0.70099297  0.57896784  0.04059281    -0.01620
Br2808     Br  0.70317466  0.53234768  0.08049004    -0.01690
Br2809     Br  0.59701807  0.55068260  0.01944960    -0.01650
Br2810     Br  0.60997458  0.49545372  0.04184240    -0.01630
C2811       C  0.57110886  0.40613702  0.16517896    -0.02760
C2812       C  0.56922602  0.42679756  0.14917705     0.06920
C2813       C  0.54739612  0.43045118  0.13500600    -0.02870
C2814       C  0.52864839  0.41230749  0.13495823    -0.02870
C2815       C  0.53137838  0.39067735  0.14950464     0.07050
C2816       C  0.55178725  0.38846379  0.16596823    -0.03070
Br2817     Br  0.55384523  0.36108531  0.18908503    -0.01620
Br2818     Br  0.60105082  0.40082214  0.18422244    -0.01690
Br2819     Br  0.49886605  0.41730056  0.11532281    -0.01650
Br2820     Br  0.54325022  0.46028975  0.11541914    -0.01630
C2821       C  0.56971574  0.54451285  0.12144314    -0.02760
C2822       C  0.57673173  0.53257738  0.14377351     0.06920
C2823       C  0.56429465  0.53898647  0.16607202    -0.02870
C2824       C  0.54475700  0.55677603  0.16579504    -0.02870
C2825       C  0.53709026  0.56779947  0.14312375     0.07050
C2826       C  0.54962561  0.56126791  0.12093408    -0.03070
Br2827     Br  0.53987067  0.57491827  0.08915880    -0.01620
Br2828     Br  0.58808108  0.53902324  0.09110891    -0.01690
Br2829     Br  0.52704056  0.56418917  0.19619671    -0.01650
Br2830     Br  0.57259875  0.52215878  0.19671673    -0.01630
C2831       C  0.67479788  0.41305540  0.05772113    -0.02760
C2832       C  0.65668873  0.41303298  0.07658305     0.06920
C2833       C  0.63870732  0.39435110  0.07750471    -0.02870
C2834       C  0.63579394  0.37821576  0.05732942    -0.02870
C2835       C  0.65242789  0.37950319  0.03658818     0.07050
C2836       C  0.67320304  0.39591526  0.03799990    -0.03070
Br2837     Br  0.69925928  0.39665042  0.01304998    -0.01620
Br2838     Br  0.70100537  0.43757642  0.05851312    -0.01690
Br2839     Br  0.60779393  0.35572714  0.05908468    -0.01650
Br2840     Br  0.61800291  0.39109660  0.10681047    -0.01630
C2841       C  0.69180752  0.37444885  0.15601916    -0.02760
C2842       C  0.68083783  0.36117374  0.17595596     0.06920
C2843       C  0.67017562  0.37482631  0.19586034    -0.02870
C2844       C  0.66834746  0.40103089  0.19450590    -0.02870
C2845       C  0.67785390  0.41404308  0.17372143     0.07050
C2846       C  0.69205385  0.40063859  0.15600049    -0.03070
Br2847     Br  0.71383364  0.41737605  0.13278947    -0.01620
Br2848     Br  0.70448792  0.35721439  0.12711064    -0.01690
Br2849     Br  0.65499282  0.41949612  0.22231192    -0.01650
Br2850     Br  0.65890563  0.35809317  0.22561145    -0.01630
C2851       C  0.66569266  0.26285466  0.04840661    -0.02760
C2852       C  0.67928491  0.28133980  0.03540552     0.06920
C2853       C  0.69917425  0.29303974  0.04823106    -0.02870
C2854       C  0.70233896  0.28977010  0.07419505    -0.02870
C2855       C  0.68549397  0.27500617  0.08811491     0.07050
C2856       C  0.66811174  0.26031711  0.07463466    -0.03070
Br2857     Br  0.64591367  0.23767177  0.09171623    -0.01620
Br2858     Br  0.64328921  0.24092034  0.03084975    -0.01690
Br2859     Br  0.73123292  0.30412967  0.09005989    -0.01650
Br2860     Br  0.72361947  0.31225031  0.03001487    -0.01630
C2861       C  0.55756536  0.26583782  0.18073000    -0.02760
C2862       C  0.54982810  0.28636588  0.16635980     0.06920
C2863       C  0.56790166  0.30127079  0.15421551    -0.02870
C2864       C  0.59332753  0.29576047  0.15643345    -0.02870
C2865       C  0.60096562  0.27562428  0.17106844     0.07050
C2866       C  0.58324336  0.26059925  0.18328712    -0.03070
Br2867     Br  0.59424286  0.23297896  0.20346007    -0.01620
Br2868     Br  0.53319915  0.24577789  0.19779968    -0.01690
Br2869     Br  0.61798072  0.31600710  0.13954303    -0.01650
Br2870     Br  0.55856547  0.32824255  0.13257181    -0.01630
C2871       C  0.77704049  0.37715727  0.26169926    -0.02760
C2872       C  0.77888831  0.35973343  0.28159293     0.06920
C2873       C  0.78291425  0.36918030  0.30573168    -0.02870
C2874       C  0.79017648  0.39391738  0.30900597    -0.02870
C2875       C  0.78725292  0.41176543  0.28988408     0.07050
C2876       C  0.78015747  0.40310605  0.26606969    -0.03070
Br2877     Br  0.77433121  0.42653873  0.23952054    -0.01620
Br2878     Br  0.76756859  0.36607488  0.22893548    -0.01690
Br2879     Br  0.80997358  0.40075327  0.33787598    -0.01650
Br2880     Br  0.77712064  0.34980042  0.33545957    -0.01630
C2881       C  0.80349178  0.30404007  0.39301729    -0.02760
C2882       C  0.79071455  0.29138667  0.41225349     0.06920
C2883       C  0.77510601  0.27136523  0.40561879    -0.02870
C2884       C  0.77174429  0.26504583  0.38014146    -0.02870
C2885       C  0.78570303  0.27721955  0.36134509     0.07050
C2886       C  0.80277927  0.29564063  0.36829539    -0.03070
Br2887     Br  0.82588394  0.30918228  0.34408511    -0.01620
Br2888     Br  0.82081184  0.33416221  0.39952018    -0.01690
Br2889     Br  0.74915221  0.23882087  0.37104573    -0.01650
Br2890     Br  0.75746152  0.25354634  0.43122785    -0.01630
C2891       C  0.88059370  0.26554318  0.29793909    -0.02760
C2892       C  0.86825306  0.27598334  0.27724460     0.06920
C2893       C  0.88265862  0.28628812  0.25775588    -0.02870
C2894       C  0.90886234  0.28863064  0.26018636    -0.02870
C2895       C  0.92103596  0.28039294  0.28216590     0.07050
C2896       C  0.90677986  0.26644804  0.29970586    -0.03070
Br2897     Br  0.92227305  0.24663339  0.32569478    -0.01620
Br2898     Br  0.86172647  0.25121232  0.32515253    -0.01690
Br2899     Br  0.92758573  0.30204043  0.23253437    -0.01650
Br2900     Br  0.86666955  0.29636699  0.22712510    -0.01630
C2901       C  0.66517558  0.04897213  0.26099937    -0.02760
C2902       C  0.67891967  0.03575288  0.27938800     0.06920
C2903       C  0.69811262  0.04870218  0.29204632    -0.02870
C2904       C  0.70139866  0.07457688  0.28825430    -0.02870
C2905       C  0.68430832  0.08845701  0.27350856     0.07050
C2906       C  0.66655245  0.07513359  0.25931524    -0.03070
Br2907     Br  0.64228890  0.09213246  0.23864667    -0.01620
Br2908     Br  0.64501961  0.03149197  0.23682689    -0.01690
Br2909     Br  0.73066889  0.09033422  0.30203687    -0.01650
Br2910     Br  0.72041203  0.03171538  0.31470827    -0.01630
C2911       C  0.68660062  0.14892023  0.37078770    -0.02760
C2912       C  0.68034847  0.17195387  0.36013717     0.06920
C2913       C  0.67530263  0.19228672  0.37599727    -0.02870
C2914       C  0.67456887  0.18901264  0.40221712    -0.02870
C2915       C  0.67988195  0.16540880  0.41294992     0.07050
C2916       C  0.68847733  0.14628784  0.39672402    -0.03070
Br2917     Br  0.70597148  0.11721453  0.40874719    -0.01620
Br2918     Br  0.69074589  0.12000395  0.34993254    -0.01690
Br2919     Br  0.66851416  0.21769001  0.42289574    -0.01650
Br2920     Br  0.67046591  0.22492017  0.36179173    -0.01630
C2921       C  0.58653948  0.18153291  0.29874006    -0.02760
C2922       C  0.59716204  0.17300983  0.27632398     0.06920
C2923       C  0.58121190  0.16514814  0.25697545    -0.02870
C2924       C  0.55507248  0.16367021  0.26088783    -0.02870
C2925       C  0.54454595  0.17096812  0.28403884     0.07050
C2926       C  0.56053166  0.18234031  0.30180261    -0.03070
Br2927     Br  0.54774760  0.20086487  0.33011438    -0.01620
Br2928     Br  0.60743691  0.19020938  0.32669057    -0.01690
Br2929     Br  0.53424337  0.15266782  0.23380440    -0.01650
Br2930     Br  0.59506041  0.15704436  0.22479775    -0.01630
C2931       C  0.79629417  0.04912832  0.19215698    -0.02760
C2932       C  0.78410650  0.03689048  0.17230730     0.06920
C2933       C  0.76679142  0.05064274  0.15791878    -0.02870
C2934       C  0.76627764  0.07678277  0.15907206    -0.02870
C2935       C  0.78118360  0.08953434  0.17670641     0.07050
C2936       C  0.79445196  0.07526337  0.19457357    -0.03070
Br2937     Br  0.80952866  0.09107151  0.22307980    -0.01620
Br2938     Br  0.81564440  0.03071159  0.21630838    -0.01690
Br2939     Br  0.74655162  0.09433263  0.13442312    -0.01650
Br2940     Br  0.74324385  0.03369560  0.13659136    -0.01630
C2941       C  0.80048750  0.19263674  0.07654982    -0.02760
C2942       C  0.78277060  0.17790843  0.08950066     0.06920
C2943       C  0.76493419  0.16470656  0.07522417    -0.02870
C2944       C  0.76760843  0.16256725  0.04904455    -0.02870
C2945       C  0.78783368  0.17417267  0.03675156     0.07050
C2946       C  0.80219231  0.19149449  0.05040104    -0.03070
Br2947     Br  0.82357958  0.21493084  0.03321512    -0.01620
Br2948     Br  0.82356321  0.21415176  0.09383299    -0.01690
Br2949     Br  0.74332966  0.14372016  0.03053334    -0.01650
Br2950     Br  0.73586783  0.15054932  0.09104889    -0.01630
C2951       C  0.88610595  0.17809629  0.19273927    -0.02760
C2952       C  0.86920438  0.17583867  0.17252472     0.06920
C2953       C  0.87897630  0.17381070  0.14831120    -0.02870
C2954       C  0.90461240  0.17646533  0.14406493    -0.02870
C2955       C  0.92187215  0.17463593  0.16416219     0.07050
C2956       C  0.91226146  0.17626809  0.18867521    -0.03070
Br2957     Br  0.93467133  0.17827171  0.21668088    -0.01620
Br2958     Br  0.87394248  0.18446016  0.22597964    -0.01690
Br2959     Br  0.91420240  0.18509774  0.11039087    -0.01650
Br2960     Br  0.85807995  0.16366646  0.12079376    -0.01630
C2961       C  0.65695925  0.65371645  0.06072831    -0.02760
C2962       C  0.67338804  0.66297265  0.04236619     0.06920
C2963       C  0.69395163  0.67746846  0.04986897    -0.02870
C2964       C  0.69805077  0.68204267  0.07554283    -0.02870
C2965       C  0.68072229  0.67345911  0.09343741     0.07050
C2966       C  0.65946570  0.66075878  0.08556745    -0.03070
Br2967     Br  0.63225392  0.65532616  0.10820409    -0.01620
Br2968     Br  0.63202021  0.62939634  0.05295085    -0.01690
Br2969     Br  0.72641827  0.70114418  0.08620151    -0.01650
Br2970     Br  0.71572209  0.69167177  0.02518342    -0.01630
C2971       C  0.56627948  0.64912920  0.15617907    -0.02760
C2972       C  0.54793188  0.66487542  0.16674488     0.06920
C2973       C  0.55545474  0.68293930  0.18417820    -0.02870
C2974       C  0.58118583  0.68613563  0.18950121    -0.02870
C2975       C  0.59912417  0.66986586  0.17904789     0.07050
C2976       C  0.59105810  0.64996262  0.16444763    -0.03070
Br2977     Br  0.61309534  0.62214251  0.15849709    -0.01620
Br2978     Br  0.55897768  0.62821554  0.12831369    -0.01690
Br2979     Br  0.59190448  0.71247079  0.21117879    -0.01650
Br2980     Br  0.53080356  0.70425678  0.19929187    -0.01630
C2981       C  0.67590034  0.58272547  0.15192606    -0.02760
C2982       C  0.68418682  0.59042289  0.17531737     0.06920
C2983       C  0.68858390  0.57256894  0.19413000    -0.02870
C2984       C  0.68487295  0.54698443  0.18918234    -0.02870
C2985       C  0.67524261  0.53952005  0.16589775     0.07050
C2986       C  0.66949853  0.55794556  0.14800672    -0.03070
Br2987     Br  0.64904370  0.55077904  0.11967237    -0.01620
Br2988     Br  0.67378701  0.60588997  0.12467408    -0.01690
Br2989     Br  0.69328776  0.52250941  0.21404159    -0.01650
Br2990     Br  0.70046595  0.58319831  0.22620490    -0.01630
C2991       C  0.67959619  0.75839483  0.38038704    -0.02760
C2992       C  0.68145322  0.77772917  0.36273859     0.06920
C2993       C  0.68248430  0.80237300  0.37096521    -0.02870
C2994       C  0.68031684  0.80804126  0.39627543    -0.02870
C2995       C  0.67697810  0.78896534  0.41435670     0.07050
C2996       C  0.67758758  0.76389380  0.40611779    -0.03070
Br2997     Br  0.67757970  0.73680850  0.42971952    -0.01620
Br2998     Br  0.68111875  0.72437534  0.36925301    -0.01690
Br2999     Br  0.68149003  0.84281159  0.40440350    -0.01650
Br3000     Br  0.68617795  0.82914567  0.34742123    -0.01630
C3001       C  0.58364693  0.78056628  0.25782054    -0.02760
C3002       C  0.59861740  0.77338125  0.27820586     0.06920
C3003       C  0.58716583  0.76432286  0.29998186    -0.02870
C3004       C  0.56105446  0.76320062  0.30170598    -0.02870
C3005       C  0.54589655  0.77416003  0.28284669     0.07050
C3006       C  0.55739541  0.78110827  0.26011351    -0.03070
Br3007     Br  0.53761925  0.78960863  0.23125683    -0.01620
Br3008     Br  0.59901193  0.78876485  0.22633344    -0.01690
Br3009     Br  0.54719205  0.74512658  0.32977144    -0.01650
Br3010     Br  0.60706826  0.75507462  0.32862851    -0.01630
C3011       C  0.66216234  0.86713832  0.29703476    -0.02760
C3012       C  0.68186170  0.85896420  0.28187893     0.06920
C3013       C  0.69921609  0.87638714  0.27262511    -0.02870
C3014       C  0.69612369  0.90203571  0.27771100    -0.02870
C3015       C  0.67708115  0.91003091  0.29402544     0.07050
C3016       C  0.66104735  0.89206147  0.30466841    -0.03070
Br3017     Br  0.63889853  0.90043091  0.33143550    -0.01620
Br3018     Br  0.63613599  0.84423956  0.30667841    -0.01690
Br3019     Br  0.71887251  0.92595746  0.26380335    -0.01650
Br3020     Br  0.72770500  0.86488987  0.25398085    -0.01630
C3021       C  0.77198935  0.66159494  0.37591920    -0.02760
C3022       C  0.78593131  0.67943902  0.36228137     0.06920
C3023       C  0.79828099  0.69833799  0.37578498    -0.02870
C3024       C  0.79997401  0.69700644  0.40201140    -0.02870
C3025       C  0.78806133  0.67763659  0.41530951     0.07050
C3026       C  0.77170619  0.66192751  0.40215926    -0.03070
Br3027     Br  0.74757482  0.64175759  0.41957272    -0.01620
Br3028     Br  0.75429124  0.63512059  0.35947818    -0.01690
Br3029     Br  0.81734660  0.72287282  0.41981025    -0.01650
Br3030     Br  0.81141750  0.72722549  0.35897371    -0.01630
C3031       C  0.88603961  0.66653816  0.25651340    -0.02760
C3032       C  0.87143566  0.67682785  0.27584795     0.06920
C3033       C  0.88361514  0.68824011  0.29620163    -0.02870
C3034       C  0.90978910  0.68713253  0.29830813    -0.02870
C3035       C  0.92383071  0.67294172  0.28113623     0.07050
C3036       C  0.91213239  0.66460175  0.25919533    -0.03070
Br3037     Br  0.93221216  0.65181862  0.23218443    -0.01620
Br3038     Br  0.87071437  0.65613749  0.22578098    -0.01690
Br3039     Br  0.92571843  0.70496953  0.32512806    -0.01650
Br3040     Br  0.86478817  0.70371292  0.32275473    -0.01630
C3041       C  0.76466679  0.57746648  0.29055768    -0.02760
C3042       C  0.78140585  0.59059529  0.27476552     0.06920
C3043       C  0.79571701  0.57637746  0.25745728    -0.02870
C3044       C  0.79555160  0.55016591  0.25853241    -0.02870
C3045       C  0.78341746  0.53768256  0.27816574     0.07050
C3046       C  0.76597209  0.55123141  0.29254162    -0.03070
Br3047     Br  0.74262090  0.53410896  0.31380493    -0.01620
Br3048     Br  0.73818907  0.59463541  0.30799073    -0.01690
Br3049     Br  0.81021340  0.53092877  0.23180042    -0.01650
Br3050     Br  0.81651957  0.59159719  0.23221196    -0.01630
C3051       C  0.76906480  0.79325731  0.05013013    -0.02760
C3052       C  0.78804039  0.78035873  0.03702542     0.06920
C3053       C  0.80033303  0.76064496  0.04954095    -0.02870
C3054       C  0.79745785  0.75753495  0.07568599    -0.02870
C3055       C  0.78188135  0.77383657  0.08968458     0.07050
C3056       C  0.76659862  0.79084534  0.07620392    -0.03070
Br3057     Br  0.74270568  0.81237754  0.09267328    -0.01620
Br3058     Br  0.74477369  0.81295105  0.03198444    -0.01690
Br3059     Br  0.81424445  0.73000400  0.09175272    -0.01650
Br3060     Br  0.82001736  0.73687424  0.03098512    -0.01630
C3061       C  0.87521264  0.79284774  0.15331308    -0.02760
C3062       C  0.86669800  0.78207205  0.17543473     0.06920
C3063       C  0.88405763  0.77587172  0.19428182    -0.02870
C3064       C  0.90995745  0.77984458  0.19042742    -0.02870
C3065       C  0.91824806  0.79165351  0.16846773     0.07050
C3066       C  0.90025263  0.79981898  0.15099188    -0.03070
Br3067     Br  0.90861059  0.82350955  0.12553068    -0.01620
Br3068     Br  0.85309858  0.79598011  0.12517170    -0.01690
Br3069     Br  0.93387186  0.76883018  0.21481927    -0.01650
Br3070     Br  0.87238353  0.76096369  0.22473528    -0.01630
C3071       C  0.80458450  0.86913172  0.16104941    -0.02760
C3072       C  0.78143852  0.86133537  0.17011570     0.06920
C3073       C  0.76295969  0.87927790  0.17581565    -0.02870
C3074       C  0.76846768  0.90498755  0.17378414    -0.02870
C3075       C  0.79195614  0.91257548  0.16453050     0.07050
C3076       C  0.80904617  0.89425068  0.15660962    -0.03070
Br3077     Br  0.83739146  0.90275547  0.13668948    -0.01620
Br3078     Br  0.83101574  0.84563836  0.15573132    -0.01690
Br3079     Br  0.74428499  0.92944438  0.18416711    -0.01650
Br3080     Br  0.73039481  0.86852792  0.18636308    -0.01630
C3081       C  0.28777070  0.69154891  0.04938202    -0.02760
C3082       C  0.28350373  0.66745580  0.03958374     0.06920
C3083       C  0.27649140  0.64831914  0.05644440    -0.02870
C3084       C  0.27948309  0.65150999  0.08206232    -0.02870
C3085       C  0.28471216  0.67506459  0.09182857     0.07050
C3086       C  0.28775347  0.69536472  0.07545527    -0.03070
Br3087     Br  0.29075309  0.72848750  0.08877070    -0.01620
Br3088     Br  0.29114140  0.71994169  0.02766358    -0.01690
Br3089     Br  0.27839394  0.62268002  0.10350428    -0.01650
Br3090     Br  0.26001395  0.61825136  0.04592375    -0.01630
C3091       C  0.26544747  0.57553201  0.16562206    -0.02760
C3092       C  0.28414574  0.59057130  0.17634052     0.06920
C3093       C  0.30459851  0.57887676  0.18820864    -0.02870
C3094       C  0.30680764  0.55283524  0.18839418    -0.02870
C3095       C  0.29072969  0.53809662  0.17356922     0.07050
C3096       C  0.26884940  0.54948272  0.16383854    -0.03070
Br3097     Br  0.24247320  0.52986931  0.14939505    -0.01620
Br3098     Br  0.23441329  0.59029652  0.15460488    -0.01690
Br3099     Br  0.33173091  0.53798747  0.21005019    -0.01650
Br3100     Br  0.33142409  0.59816571  0.20240709    -0.01630
C3101       C  0.38246125  0.68981478  0.15946891    -0.02760
C3102       C  0.36900316  0.67671216  0.17806171     0.06920
C3103       C  0.38271777  0.66413848  0.19677437    -0.02870
C3104       C  0.40886751  0.66128819  0.19465137    -0.02870
C3105       C  0.42195332  0.67186284  0.17436422     0.07050
C3106       C  0.40881817  0.68826459  0.15835665    -0.03070
Br3107     Br  0.42632610  0.70913462  0.13486778    -0.01620
Br3108     Br  0.36522434  0.70872875  0.13401900    -0.01690
Br3109     Br  0.42692656  0.64382743  0.22049065    -0.01650
Br3110     Br  0.36624803  0.65226372  0.22647907    -0.01630
C3111       C  0.16297361  0.69407400  0.37563770    -0.02760
C3112       C  0.18159130  0.68007264  0.36281330     0.06920
C3113       C  0.19960067  0.66694533  0.37738278    -0.02870
C3114       C  0.19762437  0.66637953  0.40353489    -0.02870
C3115       C  0.17666196  0.67666402  0.41563954     0.07050
C3116       C  0.16035961  0.69208762  0.40178028    -0.03070
Br3117     Br  0.13438089  0.71097395  0.41818875    -0.01620
Br3118     Br  0.14112001  0.71702795  0.35827274    -0.01690
Br3119     Br  0.22454737  0.65251230  0.42326954    -0.01650
Br3120     Br  0.22681879  0.64812718  0.36273620    -0.01630
C3121       C  0.15890597  0.56007638  0.29644221    -0.02760
C3122       C  0.17698289  0.54243293  0.28891493     0.06920
C3123       C  0.19823787  0.55063677  0.27578600    -0.02870
C3124       C  0.20146898  0.57634390  0.27103706    -0.02870
C3125       C  0.18253392  0.59343889  0.27777433     0.07050
C3126       C  0.16056353  0.58474296  0.28865158    -0.03070
Br3127     Br  0.13190696  0.60616239  0.29141722    -0.01620
Br3128     Br  0.13380719  0.55255760  0.32070779    -0.01690
Br3129     Br  0.23150028  0.58814791  0.25528789    -0.01650
Br3130     Br  0.22344171  0.52698146  0.26597706    -0.01630
C3131       C  0.09147586  0.66348465  0.29835211    -0.02760
C3132       C  0.09891199  0.67556632  0.27658504     0.06920
C3133       C  0.08062535  0.68376962  0.25939207    -0.02870
C3134       C  0.05487571  0.67980103  0.26440620    -0.02870
C3135       C  0.04775596  0.66632791  0.28581340     0.07050
C3136       C  0.06655679  0.65698708  0.30152938    -0.03070
Br3137     Br  0.05924626  0.63144832  0.32469571    -0.01620
Br3138     Br  0.11493165  0.65715523  0.32492966    -0.01690
Br3139     Br  0.02970100  0.69280923  0.24239485    -0.01650
Br3140     Br  0.09089098  0.70102094  0.22968755    -0.01630
C3141       C  0.27724823  0.76151877  0.37881276    -0.02760
C3142       C  0.28884391  0.77629878  0.36029867     0.06920
C3143       C  0.30363220  0.79638330  0.36766699    -0.02870
C3144       C  0.30646690  0.80208097  0.39302459    -0.02870
C3145       C  0.29522129  0.78742835  0.41190670     0.07050
C3146       C  0.28070308  0.76684877  0.40452185    -0.03070
Br3147     Br  0.26476408  0.74666470  0.42947955    -0.01620
Br3148     Br  0.25691533  0.73380977  0.36885182    -0.01690
Br3149     Br  0.32784688  0.82922474  0.40107770    -0.01650
Br3150     Br  0.32030006  0.81639967  0.34280342    -0.01630
C3151       C  0.28267592  0.87005542  0.30481328    -0.02760
C3152       C  0.27932264  0.86051463  0.28071807     0.06920
C3153       C  0.27782839  0.87770752  0.26063203    -0.02870
C3154       C  0.28129888  0.90351609  0.26500042    -0.02870
C3155       C  0.28907152  0.91170949  0.28871965     0.07050
C3156       C  0.29180096  0.89393912  0.30772542    -0.03070
Br3157     Br  0.31495578  0.89857442  0.33439107    -0.01620
Br3158     Br  0.27102743  0.85362080  0.33453376    -0.01690
Br3159     Br  0.27538021  0.92723452  0.23875114    -0.01650
Br3160     Br  0.26805111  0.86666618  0.22794373    -0.01630
C3161       C  0.37986398  0.77960321  0.29459407    -0.02760
C3162       C  0.36948364  0.77494897  0.27144876     0.06920
C3163       C  0.38541745  0.77281046  0.25045074    -0.02870
C3164       C  0.41164915  0.77586964  0.25341948    -0.02870
C3165       C  0.42095102  0.78351404  0.27669482     0.07050
C3166       C  0.40415546  0.78767793  0.29601636    -0.03070
Br3167     Br  0.41006478  0.81449934  0.31767664    -0.01620
Br3168     Br  0.36204384  0.77362998  0.32478678    -0.01690
Br3169     Br  0.43426533  0.77108366  0.22606957    -0.01650
Br3170     Br  0.37155236  0.76464232  0.21854571    -0.01630
C3171       C  0.20402491  0.78695003  0.07703516    -0.02760
C3172       C  0.18424601  0.77642915  0.09103120     0.06920
C3173       C  0.16460981  0.76454081  0.07809323    -0.02870
C3174       C  0.16419240  0.76437528  0.05188333    -0.02870
C3175       C  0.18147951  0.77879631  0.03828451     0.07050
C3176       C  0.20241381  0.78841267  0.05085678    -0.03070
Br3177     Br  0.22981365  0.80193465  0.03181165    -0.01620
Br3178     Br  0.23403986  0.79842374  0.09317653    -0.01690
Br3179     Br  0.14056893  0.74314907  0.03519705    -0.01650
Br3180     Br  0.13668854  0.75013792  0.09567529    -0.01630
C3181       C  0.20202183  0.87680172  0.16001678    -0.02760
C3182       C  0.18659869  0.86364665  0.17715369     0.06920
C3183       C  0.17330583  0.87771686  0.19514969    -0.02870
C3184       C  0.17192484  0.90385827  0.19313175    -0.02870
C3185       C  0.18367235  0.91634871  0.17318141     0.07050
C3186       C  0.20152808  0.90309284  0.15921086    -0.03070
Br3187     Br  0.22752480  0.92092292  0.14194241    -0.01620
Br3188     Br  0.22324114  0.85963646  0.13647463    -0.01690
Br3189     Br  0.15640928  0.92303049  0.21936144    -0.01650
Br3190     Br  0.15829186  0.86187782  0.22376060    -0.01630
C3191       C  0.08358400  0.79313153  0.19598370    -0.02760
C3192       C  0.09688413  0.77687043  0.17979234     0.06920
C3193       C  0.08281994  0.75975366  0.16548074    -0.02870
C3194       C  0.05658864  0.76233407  0.16346363    -0.02870
C3195       C  0.04396050  0.78098920  0.17709053     0.07050
C3196       C  0.05727778  0.79375674  0.19562359    -0.03070
Br3197     Br  0.03900776  0.81069034  0.22170076    -0.01620
Br3198     Br  0.10031323  0.81593971  0.21814068    -0.01690
Br3199     Br  0.03835997  0.73972301  0.14247246    -0.01650
Br3200     Br  0.09872306  0.73130780  0.15024143    -0.01630
C3201       C  0.38272778  0.69740821  0.78760887    -0.02760
C3202       C  0.36912660  0.67945873  0.77391345     0.06920
C3203       C  0.38267441  0.66258259  0.75871921    -0.02870
C3204       C  0.40892911  0.66193890  0.75976895    -0.02870
C3205       C  0.42171956  0.67558933  0.77807487     0.07050
C3206       C  0.40897658  0.69547037  0.78968745    -0.03070
Br3207     Br  0.42727406  0.72133790  0.80650811    -0.01620
Br3208     Br  0.36597742  0.72566592  0.80239278    -0.01690
Br3209     Br  0.42768351  0.64422669  0.73455999    -0.01650
Br3210     Br  0.36612618  0.63883858  0.73745658    -0.01630
C3211       C  0.27026438  0.65620531  0.87534479    -0.02760
C3212       C  0.28049527  0.67726644  0.86276592     0.06920
C3213       C  0.28898034  0.69752598  0.87765948    -0.02870
C3214       C  0.29053585  0.69506413  0.90375501    -0.02870
C3215       C  0.28321717  0.67292393  0.91556189     0.07050
C3216       C  0.27047689  0.65488225  0.90156211    -0.03070
Br3217     Br  0.25216292  0.62869873  0.91804065    -0.01620
Br3218     Br  0.25624292  0.62795262  0.85795111    -0.01690
Br3219     Br  0.30117207  0.72278647  0.92399164    -0.01650
Br3220     Br  0.29865753  0.72929866  0.86371747    -0.01630
C3221       C  0.30434674  0.58667683  0.79580985    -0.02760
C3222       C  0.28530716  0.59414276  0.77962630     0.06920
C3223       C  0.27042457  0.57609407  0.76768823    -0.02870
C3224       C  0.27547499  0.55047282  0.77127182    -0.02870
C3225       C  0.29546604  0.54298371  0.78663377     0.07050
C3226       C  0.30949095  0.56138350  0.79912589    -0.03070
Br3227     Br  0.33592300  0.55281627  0.82135604    -0.01620
Br3228     Br  0.32303123  0.61141331  0.81417079    -0.01690
Br3229     Br  0.25601858  0.52578631  0.75422981    -0.01650
Br3230     Br  0.24406862  0.58647351  0.74552183    -0.01630
C3231       C  0.38253380  0.79177210  0.69582154    -0.02760
C3232       C  0.36904698  0.77623456  0.67936125     0.06920
C3233       C  0.38297076  0.76053104  0.66318630    -0.02870
C3234       C  0.40922199  0.76203761  0.66242270    -0.02870
C3235       C  0.42174312  0.78161093  0.67444670     0.07050
C3236       C  0.40845688  0.79556266  0.69245890    -0.03070
Br3237     Br  0.42508908  0.81991992  0.71281727    -0.01620
Br3238     Br  0.36650817  0.80576853  0.72480471    -0.01690
Br3239     Br  0.42843535  0.73588359  0.64669981    -0.01650
Br3240     Br  0.36709203  0.73749184  0.64068189    -0.01630
C3241       C  0.27578538  0.77343411  0.54823155    -0.02760
C3242       C  0.29577270  0.78873435  0.54086863     0.06920
C3243       C  0.31089841  0.79976356  0.55942908    -0.02870
C3244       C  0.30673390  0.79503203  0.58472328    -0.02870
C3245       C  0.28749914  0.77903360  0.59198093     0.07050
C3246       C  0.27162891  0.76857553  0.57379121    -0.03070
Br3247     Br  0.24501061  0.74664267  0.58379890    -0.01620
Br3248     Br  0.25502513  0.75819157  0.52336844    -0.01690
Br3249     Br  0.32677771  0.81155477  0.60972977    -0.01650
Br3250     Br  0.33735599  0.82212143  0.55110262    -0.01630
C3251       C  0.26519003  0.87727583  0.66192012    -0.02760
C3252       C  0.28326527  0.86222258  0.67396805     0.06920
C3253       C  0.30299638  0.87408228  0.68667669    -0.02870
C3254       C  0.30456506  0.90015038  0.68752165    -0.02870
C3255       C  0.28879996  0.91512725  0.67239813     0.07050
C3256       C  0.26814344  0.90344849  0.66067384    -0.03070
Br3257     Br  0.24264174  0.92275825  0.64398039    -0.01620
Br3258     Br  0.23558774  0.86239011  0.64793847    -0.01690
Br3259     Br  0.32763496  0.91456486  0.71122967    -0.01650
Br3260     Br  0.32986017  0.85507704  0.70133082    -0.01630
C3261       C  0.07978098  0.68997256  0.68896405    -0.02760
C3262       C  0.09773957  0.67469017  0.67705962     0.06920
C3263       C  0.09010395  0.65628749  0.66044651    -0.02870
C3264       C  0.06466079  0.65241210  0.65642293    -0.02870
C3265       C  0.04637559  0.66711906  0.66845201     0.07050
C3266       C  0.05402620  0.68618182  0.68460327    -0.03070
Br3267     Br  0.02933402  0.70596166  0.70165948    -0.01620
Br3268     Br  0.09039500  0.71516506  0.71208796    -0.01690
Br3269     Br  0.05543110  0.62661366  0.63410081    -0.01650
Br3270     Br  0.11472626  0.63695672  0.64226097    -0.01630
C3271       C  0.19293389  0.65930526  0.57928013    -0.02760
C3272       C  0.18048746  0.67860037  0.59237449     0.06920
C3273       C  0.16868665  0.69763842  0.57840167    -0.02870
C3274       C  0.16676687  0.69570238  0.55223981    -0.02870
C3275       C  0.17723505  0.67512358  0.53948469     0.07050
C3276       C  0.19257731  0.65857953  0.55302763    -0.03070
Br3277     Br  0.21447295  0.63577191  0.53601168    -0.01620
Br3278     Br  0.20892077  0.63221822  0.59678774    -0.01690
Br3279     Br  0.15133751  0.72241560  0.53362426    -0.01650
Br3280     Br  0.15609729  0.72719100  0.59459905    -0.01630
C3281       C  0.20061256  0.57780528  0.66419976    -0.02760
C3282       C  0.18395653  0.59192030  0.67914818     0.06920
C3283       C  0.16702655  0.57867573  0.69466850    -0.02870
C3284       C  0.16545264  0.55251977  0.69323377    -0.02870
C3285       C  0.17785349  0.53940011  0.67413792     0.07050
C3286       C  0.19721269  0.55187031  0.66117603    -0.03070
Br3287     Br  0.22047033  0.53377013  0.64048350    -0.01620
Br3288     Br  0.22966166  0.59324582  0.64956292    -0.01690
Br3289     Br  0.14897874  0.53421707  0.71952566    -0.01650
Br3290     Br  0.14464951  0.59546306  0.71746475    -0.01630
C3291       C  0.08433525  0.79135827  0.75637394    -0.02760
C3292       C  0.09804381  0.77780041  0.77437687     0.06920
C3293       C  0.08458141  0.76336846  0.79201020    -0.02870
C3294       C  0.05829806  0.76541026  0.79370954    -0.02870
C3295       C  0.04523404  0.78269173  0.77859410     0.07050
C3296       C  0.05818019  0.79387317  0.75854339    -0.03070
Br3297     Br  0.03994329  0.81158626  0.73298719    -0.01620
Br3298     Br  0.10079764  0.80504189  0.72745138    -0.01690
Br3299     Br  0.04086125  0.74438384  0.81720268    -0.01650
Br3300     Br  0.10160545  0.74150670  0.81525560    -0.01630
C3301       C  0.19076210  0.79843404  0.87423841    -0.02760
C3302       C  0.18200029  0.77699500  0.86196199     0.06920
C3303       C  0.17421360  0.75646381  0.87644369    -0.02870
C3304       C  0.17258333  0.75853519  0.90261166    -0.02870
C3305       C  0.18000471  0.78061186  0.91466647     0.07050
C3306       C  0.19163020  0.79931524  0.90037055    -0.03070
Br3307     Br  0.21028578  0.82551819  0.91589366    -0.01620
Br3308     Br  0.19924412  0.82796279  0.85567060    -0.01690
Br3309     Br  0.16178081  0.73051489  0.92224681    -0.01650
Br3310     Br  0.16677486  0.72513538  0.86078369    -0.01630
C3311       C  0.16724747  0.87689632  0.76166537    -0.02760
C3312       C  0.18493935  0.86411898  0.77657528     0.06920
C3313       C  0.20270556  0.87821774  0.78995289    -0.02870
C3314       C  0.20032165  0.90436453  0.79146648    -0.02870
C3315       C  0.18110434  0.91679480  0.77815758     0.07050
C3316       C  0.16694360  0.90295168  0.76090617    -0.03070
Br3317     Br  0.14783206  0.91940045  0.73502171    -0.01620
Br3318     Br  0.14138965  0.85955870  0.74363976    -0.01690
Br3319     Br  0.22416359  0.92252557  0.81125956    -0.01650
Br3320     Br  0.23132460  0.86224854  0.80507403    -0.01630
C3321       C  0.66439225  0.37032181  0.79456608    -0.02760
C3322       C  0.68262758  0.36280124  0.77743413     0.06920
C3323       C  0.69687035  0.38082509  0.76463325    -0.02870
C3324       C  0.69222651  0.40643691  0.76853495    -0.02870
C3325       C  0.67324258  0.41401822  0.78509764     0.07050
C3326       C  0.65955605  0.39568187  0.79822162    -0.03070
Br3327     Br  0.63383498  0.40446021  0.82148439    -0.01620
Br3328     Br  0.64646765  0.34555998  0.81369193    -0.01690
Br3329     Br  0.71084892  0.43105165  0.75030247    -0.01650
Br3330     Br  0.72183378  0.37039803  0.74091735    -0.01630
C3331       C  0.58653341  0.25883342  0.78528970    -0.02760
C3332       C  0.59989995  0.27637289  0.77090674     0.06920
C3333       C  0.58606714  0.29265908  0.75521615    -0.02870
C3334       C  0.55976776  0.29382915  0.75708059    -0.02870
C3335       C  0.54732639  0.28054998  0.77611762     0.07050
C3336       C  0.56050884  0.26128192  0.78838873    -0.03070
Br3337     Br  0.54285968  0.23708645  0.80835240    -0.01620
Br3338     Br  0.60311695  0.22983089  0.79875669    -0.01690
Br3339     Br  0.54118439  0.31267660  0.73254804    -0.01650
Br3340     Br  0.60234214  0.31414110  0.73129164    -0.01630
C3341       C  0.70175672  0.29025264  0.87531800    -0.02760
C3342       C  0.68372028  0.27838852  0.86024175     0.06920
C3343       C  0.66396611  0.26558514  0.87208313    -0.02870
C3344       C  0.66161593  0.26590833  0.89815060    -0.02870
C3345       C  0.67646684  0.28212450  0.91263346     0.07050
C3346       C  0.69793087  0.29259610  0.90130003    -0.03070
Br3347     Br  0.72313096  0.30893636  0.92095373    -0.01620
Br3348     Br  0.73256257  0.30206428  0.86083396    -0.01690
Br3349     Br  0.63824126  0.24314677  0.91359699    -0.01650
Br3350     Br  0.63808563  0.24939498  0.85308119    -0.01630
C3351       C  0.69692901  0.07563299  0.68840344    -0.02760
C3352       C  0.68526948  0.09410353  0.67360740     0.06920
C3353       C  0.67152294  0.08705121  0.65280895    -0.02870
C3354       C  0.67005513  0.06210856  0.64607032    -0.02870
C3355       C  0.67870266  0.04311691  0.66216011     0.07050
C3356       C  0.69291056  0.05006063  0.68317351    -0.03070
Br3357     Br  0.70951649  0.02478667  0.70251442    -0.01620
Br3358     Br  0.71988812  0.08537794  0.71416437    -0.01690
Br3359     Br  0.65723114  0.05546347  0.61370843    -0.01650
Br3360     Br  0.65345098  0.11181662  0.63390298    -0.01630
C3361       C  0.56610117  0.15995253  0.64992510    -0.02760
C3362       C  0.54803057  0.16990862  0.66637741     0.06920
C3363       C  0.55618314  0.18376779  0.68707236    -0.02870
C3364       C  0.58210354  0.18679384  0.69153917    -0.02870
C3365       C  0.59981601  0.17721041  0.67450584     0.07050
C3366       C  0.59139453  0.16573163  0.65273720    -0.03070
Br3367     Br  0.61393419  0.16022615  0.62539452    -0.01620
Br3368     Br  0.55768132  0.13546577  0.62532681    -0.01690
Br3369     Br  0.59339573  0.20439562  0.72057462    -0.01650
Br3370     Br  0.53192460  0.19731575  0.70983159    -0.01630
C3371       C  0.69305448  0.15536057  0.57872803    -0.02760
C3372       C  0.68330279  0.17664826  0.59070790     0.06920
C3373       C  0.67380121  0.19634428  0.57603334    -0.02870
C3374       C  0.67165996  0.19363238  0.55001607    -0.02870
C3375       C  0.67907691  0.17126681  0.53833941     0.07050
C3376       C  0.69196574  0.15322312  0.55263983    -0.03070
Br3377     Br  0.70923790  0.12583640  0.53711972    -0.01620
Br3378     Br  0.70652299  0.12796808  0.59785916    -0.01690
Br3379     Br  0.66037844  0.22139711  0.53008559    -0.01650
Br3380     Br  0.66476259  0.22761261  0.59123144    -0.01630
C3381       C  0.77397238  0.37468457  0.64947766    -0.02760
C3382       C  0.78231239  0.36281794  0.67164991     0.06920
C3383       C  0.78894344  0.37832800  0.69217306    -0.02870
C3384       C  0.79039930  0.40447017  0.68927387    -0.02870
C3385       C  0.78395217  0.41577926  0.66637118     0.07050
C3386       C  0.77254267  0.40076158  0.64809718    -0.03070
Br3387     Br  0.75171115  0.41542997  0.62259680    -0.01620
Br3388     Br  0.76566099  0.35655202  0.61946914    -0.01690
Br3389     Br  0.79929556  0.42457168  0.71772737    -0.01650
Br3390     Br  0.79576756  0.36495401  0.72501527    -0.01630
C3391       C  0.91009657  0.25958360  0.65743456    -0.02760
C3392       C  0.92325395  0.27808914  0.67041341     0.06920
C3393       C  0.91093260  0.29109888  0.68972990    -0.02870
C3394       C  0.88488653  0.28882088  0.69259822    -0.02870
C3395       C  0.87098122  0.27439393  0.67559408     0.07050
C3396       C  0.88393865  0.25878249  0.65868623    -0.03070
Br3397     Br  0.86660060  0.23737614  0.63559420    -0.01620
Br3398     Br  0.92816178  0.23426453  0.63915215    -0.01690
Br3399     Br  0.86875701  0.30444430  0.72077022    -0.01650
Br3400     Br  0.92914764  0.31164137  0.71282622    -0.01630
C3401       C  0.77350133  0.26836525  0.57289998    -0.02760
C3402       C  0.78929262  0.27885259  0.59114724     0.06920
C3403       C  0.80871407  0.29465049  0.58381558    -0.02870
C3404       C  0.81275688  0.29956938  0.55849747    -0.02870
C3405       C  0.79765958  0.28860065  0.53993190     0.07050
C3406       C  0.77770883  0.27322908  0.54731678    -0.03070
Br3407     Br  0.75685067  0.25815273  0.52242670    -0.01620
Br3408     Br  0.74689160  0.24641661  0.58286102    -0.01690
Br3409     Br  0.83858287  0.32255465  0.55002125    -0.01650
Br3410     Br  0.82921227  0.31065997  0.60874448    -0.01630
C3411       C  0.76465522  0.07824912  0.78929659    -0.02760
C3412       C  0.78425437  0.09224561  0.77862917     0.06920
C3413       C  0.80427104  0.07943708  0.76707591    -0.02870
C3414       C  0.80519455  0.05326378  0.76713391    -0.02870
C3415       C  0.78758030  0.03948912  0.78110226     0.07050
C3416       C  0.76640431  0.05206786  0.79063821    -0.03070
Br3417     Br  0.73863250  0.03316387  0.80348089    -0.01620
Br3418     Br  0.73469848  0.09457135  0.80102432    -0.01690
Br3419     Br  0.83037352  0.03701784  0.74704518    -0.01650
Br3420     Br  0.83194995  0.09742100  0.75272450    -0.01630
C3421       C  0.88483717  0.16329104  0.75557399    -0.02760
C3422       C  0.87087534  0.17810536  0.77245935     0.06920
C3423       C  0.88420482  0.19350353  0.78916589    -0.02870
C3424       C  0.91046064  0.19219671  0.79025974    -0.02870
C3425       C  0.92362491  0.17314564  0.77762337     0.07050
C3426       C  0.91095340  0.16016135  0.75863227    -0.03070
Br3427     Br  0.92906295  0.13907176  0.73586080    -0.01620
Br3428     Br  0.86887985  0.14910700  0.72676368    -0.01690
Br3429     Br  0.92853435  0.21791288  0.80775942    -0.01650
Br3430     Br  0.86725135  0.21573813  0.81201677    -0.01630
C3431       C  0.78011199  0.19325996  0.87824295    -0.02760
C3432       C  0.79149855  0.17810552  0.85999361     0.06920
C3433       C  0.80624980  0.15782394  0.86728336    -0.02870
C3434       C  0.80929281  0.15229146  0.89263374    -0.02870
C3435       C  0.79759775  0.16699708  0.91121708     0.07050
C3436       C  0.78330659  0.18782505  0.90384442    -0.03070
Br3437     Br  0.76726001  0.20815430  0.92866848    -0.01620
Br3438     Br  0.76008195  0.22132169  0.86802644    -0.01690
Br3439     Br  0.83089087  0.12507318  0.90118004    -0.01650
Br3440     Br  0.82167042  0.13700474  0.84218064    -0.01630
C3441       C  0.70235806  0.57931222  0.78660836    -0.02760
C3442       C  0.68259418  0.59358338  0.77625709     0.06920
C3443       C  0.66267696  0.58072504  0.76469699    -0.02870
C3444       C  0.66203758  0.55444913  0.76466480    -0.02870
C3445       C  0.67940914  0.54059126  0.77894726     0.07050
C3446       C  0.70048593  0.55312968  0.78838477    -0.03070
Br3447     Br  0.72787761  0.53403046  0.80198441    -0.01620
Br3448     Br  0.73287834  0.59510604  0.79714165    -0.01690
Br3449     Br  0.63798597  0.53804713  0.74370101    -0.01650
Br3450     Br  0.63467666  0.59858229  0.75057132    -0.01630
C3451       C  0.65998738  0.65908146  0.86990300    -0.02760
C3452       C  0.68011165  0.67372871  0.86215285     0.06920
C3453       C  0.69792414  0.68139627  0.87999635    -0.02870
C3454       C  0.69355315  0.67757806  0.90572201    -0.02870
C3455       C  0.67274147  0.66374650  0.91362014     0.07050
C3456       C  0.65705699  0.65317911  0.89521465    -0.03070
Br3457     Br  0.63226134  0.62903402  0.90341311    -0.01620
Br3458     Br  0.63790942  0.64468356  0.84531466    -0.01690
Br3459     Br  0.71685002  0.68978838  0.93005044    -0.01650
Br3460     Br  0.72933025  0.69487678  0.86931235    -0.01630
C3461       C  0.58133995  0.66966063  0.76004401    -0.02760
C3462       C  0.59564713  0.68371488  0.77708212     0.06920
C3463       C  0.58274442  0.69952399  0.79395650    -0.02870
C3464       C  0.55646098  0.69885384  0.79549678    -0.02870
C3465       C  0.54286346  0.68063973  0.78240307     0.07050
C3466       C  0.55518757  0.66762843  0.76300339    -0.03070
Br3467     Br  0.53685221  0.64736757  0.73973167    -0.01620
Br3468     Br  0.59695943  0.65466910  0.73127252    -0.01690
Br3469     Br  0.53907420  0.72354870  0.81526274    -0.01650
Br3470     Br  0.60026492  0.72120067  0.81673299    -0.01630
C3471       C  0.79423355  0.57829574  0.69685821    -0.02760
C3472       C  0.77916423  0.59126634  0.67948571     0.06920
C3473       C  0.76359220  0.57708446  0.66353651    -0.02870
C3474       C  0.76576292  0.55089498  0.66288871    -0.02870
C3475       C  0.78526710  0.53880798  0.67592745     0.07050
C3476       C  0.79773778  0.55238605  0.69476483    -0.03070
Br3477     Br  0.81835668  0.53565690  0.71925124    -0.01620
Br3478     Br  0.80835955  0.59528707  0.72520473    -0.01690
Br3479     Br  0.74038737  0.53180844  0.64603756    -0.01650
Br3480     Br  0.73946711  0.59271908  0.64170172    -0.01630
C3481       C  0.76439182  0.66569711  0.55125688    -0.02760
C3482       C  0.78599168  0.67484323  0.53930048     0.06920
C3483       C  0.80318517  0.68871239  0.55346871    -0.02870
C3484       C  0.80183630  0.68857814  0.57963308    -0.02870
C3485       C  0.78146173  0.67722622  0.59191381     0.07050
C3486       C  0.76199305  0.66707132  0.57739055    -0.03070
Br3487     Br  0.73138013  0.65610539  0.59285662    -0.01620
Br3488     Br  0.73701260  0.65343742  0.53147881    -0.01690
Br3489     Br  0.82936078  0.70232297  0.59826223    -0.01650
Br3490     Br  0.82773581  0.70943457  0.53757975    -0.01630
C3491       C  0.88000491  0.65763386  0.68776253    -0.02760
C3492       C  0.86693388  0.67775934  0.67674709     0.06920
C3493       C  0.88102514  0.69729643  0.66603097    -0.02870
C3494       C  0.90726744  0.69512878  0.66366795    -0.02870
C3495       C  0.92006573  0.67422633  0.67339808     0.07050
C3496       C  0.90635360  0.65700541  0.68782549    -0.03070
Br3497     Br  0.92297179  0.63330382  0.70919347    -0.01620
Br3498     Br  0.86231829  0.62921014  0.70066656    -0.01690
Br3499     Br  0.92602743  0.72184144  0.64868674    -0.01650
Br3500     Br  0.86492462  0.72778145  0.65564655    -0.01630
C3501       C  0.69251673  0.87743159  0.65557083    -0.02760
C3502       C  0.68204398  0.86501997  0.67634088     0.06920
C3503       C  0.67231192  0.87949323  0.69610539    -0.02870
C3504       C  0.67073280  0.90565374  0.69389939    -0.02870
C3505       C  0.67918411  0.91782410  0.67212065     0.07050
C3506       C  0.69238928  0.90363490  0.65424394    -0.03070
Br3507     Br  0.71175368  0.91950498  0.62850563    -0.01620
Br3508     Br  0.70531100  0.85884426  0.62750486    -0.01690
Br3509     Br  0.65900224  0.92511566  0.72176477    -0.01650
Br3510     Br  0.66209706  0.86387237  0.72684711    -0.01630
C3511       C  0.69868882  0.78678451  0.57598585    -0.02760
C3512       C  0.67928188  0.77880993  0.59190832     0.06920
C3513       C  0.65731323  0.76925280  0.58127459    -0.02870
C3514       C  0.65447175  0.76819962  0.55531859    -0.02870
C3515       C  0.67188913  0.78029079  0.53944990     0.07050
C3516       C  0.69495695  0.78789417  0.54992015    -0.03070
Br3517     Br  0.72247359  0.79798933  0.52900827    -0.01620
Br3518     Br  0.73090767  0.79502208  0.58972913    -0.01690
Br3519     Br  0.62687653  0.74883454  0.54243634    -0.01650
Br3520     Br  0.62954316  0.75980310  0.60203135    -0.01630
C3521       C  0.58281791  0.79126761  0.69799144    -0.02760
C3522       C  0.59674881  0.77610123  0.68127733     0.06920
C3523       C  0.58318875  0.76025284  0.66518866    -0.02870
C3524       C  0.55745749  0.76430994  0.66099741    -0.02870
C3525       C  0.54430019  0.78200711  0.67542663     0.07050
C3526       C  0.55659842  0.79267707  0.69595759    -0.03070
Br3527     Br  0.53709253  0.80756976  0.72240868    -0.01620
Br3528     Br  0.59845316  0.81083833  0.72374517    -0.01690
Br3529     Br  0.54107064  0.74555207  0.63520418    -0.01650
Br3530     Br  0.59859534  0.73076021  0.65151442    -0.01630
C3531       C  0.76492668  0.87758954  0.78478117    -0.02760
C3532       C  0.78432848  0.86181726  0.77627280     0.06920
C3533       C  0.80663940  0.87257660  0.76756781    -0.02870
C3534       C  0.80954936  0.89852733  0.76729897    -0.02870
C3535       C  0.79176773  0.91427185  0.77930368     0.07050
C3536       C  0.76872017  0.90356759  0.78679141    -0.03070
Br3537     Br  0.74131970  0.92401711  0.79832882    -0.01620
Br3538     Br  0.73257530  0.86382528  0.79263683    -0.01690
Br3539     Br  0.83744609  0.91146978  0.74827482    -0.01650
Br3540     Br  0.83462143  0.85189526  0.75774054    -0.01630
C3541       C  0.80064023  0.80338278  0.86820937    -0.02760
C3542       C  0.78323506  0.78551589  0.86096984     0.06920
C3543       C  0.76824787  0.77431320  0.87945936    -0.02870
C3544       C  0.77407618  0.77731045  0.90497134    -0.02870
C3545       C  0.79477343  0.79181657  0.91197472     0.07050
C3546       C  0.80765691  0.80530642  0.89328229    -0.03070
Br3547     Br  0.83516449  0.82658133  0.90107392    -0.01620
Br3548     Br  0.81059329  0.82858914  0.84456914    -0.01690
Br3549     Br  0.75453925  0.76068161  0.93005563    -0.01650
Br3550     Br  0.73848541  0.75709901  0.86991664    -0.01630
C3551       C  0.88631663  0.77389621  0.75989065    -0.02760
C3552       C  0.86856362  0.77860224  0.77882184     0.06920
C3553       C  0.87676976  0.78659958  0.80209676    -0.02870
C3554       C  0.90157397  0.79338063  0.80549795    -0.02870
C3555       C  0.91993609  0.78735698  0.78766501     0.07050
C3556       C  0.91216624  0.77738625  0.76462009    -0.03070
Br3557     Br  0.93656499  0.76803164  0.73998251    -0.01620
Br3558     Br  0.87525535  0.76124190  0.72830042    -0.01690
Br3559     Br  0.90870181  0.81491521  0.83279317    -0.01650
Br3560     Br  0.85481112  0.78644760  0.83030983    -0.01630
C3561       C  0.38476572  0.25834762  0.16488860    -0.02760
C3562       C  0.37130459  0.27622498  0.17887655     0.06920
C3563       C  0.38491492  0.29383224  0.19302401    -0.02870
C3564       C  0.41123405  0.29489282  0.19134378    -0.02870
C3565       C  0.42421219  0.27931001  0.17451163     0.07050
C3566       C  0.41095700  0.25987311  0.16280101    -0.03070
Br3567     Br  0.42880543  0.23441631  0.14448942    -0.01620
Br3568     Br  0.36788048  0.23085381  0.14908953    -0.01690
Br3569     Br  0.42896387  0.31804948  0.21224151    -0.01650
Br3570     Br  0.36794809  0.31815624  0.21355053    -0.01630
C3571       C  0.30929445  0.28966486  0.08397707    -0.02760
C3572       C  0.28626536  0.28101409  0.09271173     0.06920
C3573       C  0.26760505  0.27478887  0.07517825    -0.02870
C3574       C  0.27229251  0.27717189  0.04918454    -0.02870
C3575       C  0.29485803  0.28774444  0.04066761     0.07050
C3576       C  0.31245593  0.29529674  0.05868637    -0.03070
Br3577     Br  0.33865214  0.31765709  0.05040855    -0.01620
Br3578     Br  0.33717358  0.29307273  0.10639294    -0.01690
Br3579     Br  0.24773864  0.26670809  0.02534615    -0.01650
Br3580     Br  0.23584059  0.26294346  0.08686413    -0.01630
C3581       C  0.30382622  0.39493944  0.15305058    -0.02760
C3582       C  0.29077242  0.41324349  0.16657516     0.06920
C3583       C  0.27466299  0.40560964  0.18588632    -0.02870
C3584       C  0.27196455  0.37989270  0.19124972    -0.02870
C3585       C  0.28601701  0.36206025  0.17777392     0.07050
C3586       C  0.30176719  0.36976746  0.15867469    -0.03070
Br3587     Br  0.31945806  0.34544028  0.13893838    -0.01620
Br3588     Br  0.32467768  0.40364603  0.12619492    -0.01690
Br3589     Br  0.24912018  0.36905121  0.21672860    -0.01650
Br3590     Br  0.25553657  0.43007691  0.20380373    -0.01630
C3591       C  0.38275716  0.16366929  0.25691857    -0.02760
C3592       C  0.36915799  0.17731797  0.27489786     0.06920
C3593       C  0.38258962  0.19021289  0.29353251    -0.02870
C3594       C  0.40870229  0.18701479  0.29575685    -0.02870
C3595       C  0.42129243  0.16927777  0.28079680     0.07050
C3596       C  0.40851312  0.15922926  0.26012179    -0.03070
Br3597     Br  0.42642922  0.14045538  0.23510931    -0.01620
Br3598     Br  0.36677674  0.15260212  0.22669177    -0.01690
Br3599     Br  0.42650740  0.20693425  0.31981469    -0.01650
Br3600     Br  0.36556250  0.21111384  0.31749929    -0.01630
C3601       C  0.30541501  0.14965475  0.39306384    -0.02760
C3602       C  0.29409388  0.16469731  0.41157713     0.06920
C3603       C  0.27978728  0.18551281  0.40427568    -0.02870
C3604       C  0.27652828  0.19079819  0.37872566    -0.02870
C3605       C  0.28786883  0.17545130  0.36065385     0.07050
C3606       C  0.30236028  0.15505291  0.36781965    -0.03070
Br3607     Br  0.31782386  0.13419228  0.34267963    -0.01620
Br3608     Br  0.32707673  0.12253567  0.40130110    -0.01690
Br3609     Br  0.25666954  0.21893680  0.36835996    -0.01650
Br3610     Br  0.26385763  0.20600288  0.42905779    -0.01630
C3611       C  0.30683554  0.07981103  0.26748714    -0.02760
C3612       C  0.28559771  0.09116038  0.27817361     0.06920
C3613       C  0.26643612  0.07580635  0.28766308    -0.02870
C3614       C  0.26949450  0.04961198  0.28846880    -0.02870
C3615       C  0.29170464  0.03828244  0.27925621     0.07050
C3616       C  0.30912395  0.05374131  0.26657166    -0.03070
Br3617     Br  0.33592491  0.04017909  0.24632192    -0.01620
Br3618     Br  0.33436189  0.09984316  0.25579241    -0.01690
Br3619     Br  0.24209016  0.02979226  0.30074970    -0.01650
Br3620     Br  0.23530296  0.09050009  0.29854211    -0.01630
C3621       C  0.08934436  0.30352296  0.27099242    -0.02760
C3622       C  0.09932249  0.28026682  0.27773587     0.06920
C3623       C  0.08311049  0.26010886  0.28195809    -0.02870
C3624       C  0.05697343  0.26380117  0.28162829    -0.02870
C3625       C  0.04690502  0.28765964  0.27639838     0.07050
C3626       C  0.06350422  0.30676037  0.26855464    -0.03070
Br3627     Br  0.05227862  0.33736061  0.25285333    -0.01620
Br3628     Br  0.11096271  0.33189777  0.26655273    -0.01690
Br3629     Br  0.03538159  0.23550217  0.28620656    -0.01650
Br3630     Br  0.09669105  0.22721691  0.28714670    -0.01630
C3631       C  0.16882791  0.26065337  0.37663246    -0.02760
C3632       C  0.18665027  0.27473456  0.36308517     0.06920
C3633       C  0.20460298  0.28830279  0.37678882    -0.02870
C3634       C  0.20193600  0.29154640  0.40277979    -0.02870
C3635       C  0.18188933  0.28035590  0.41581185     0.07050
C3636       C  0.16720613  0.26265924  0.40285818    -0.03070
Br3637     Br  0.14432739  0.24085336  0.42024690    -0.01620
Br3638     Br  0.14503451  0.23948448  0.35979738    -0.01690
Br3639     Br  0.22710995  0.30997327  0.42061840    -0.01650
Br3640     Br  0.23433251  0.30073632  0.36064448    -0.01630
C3641       C  0.19475290  0.37472710  0.30079079    -0.02760
C3642       C  0.18527472  0.36311912  0.27921333     0.06920
C3643       C  0.17711409  0.37829094  0.25929393    -0.02870
C3644       C  0.17609408  0.40442184  0.26195694    -0.02870
C3645       C  0.18374481  0.41592151  0.28435743     0.07050
C3646       C  0.19523827  0.40089923  0.30273807    -0.03070
Br3647     Br  0.21267965  0.41553675  0.33034318    -0.01620
Br3648     Br  0.20509722  0.35497951  0.32899754    -0.01690
Br3649     Br  0.16566395  0.42467523  0.23410985    -0.01650
Br3650     Br  0.16825441  0.36354294  0.22781744    -0.01630
C3651       C  0.08559543  0.16790531  0.19607201    -0.02760
C3652       C  0.09964172  0.18002943  0.17734893     0.06920
C3653       C  0.08648074  0.19287214  0.15830422    -0.02870
C3654       C  0.06019880  0.19087717  0.15642368    -0.02870
C3655       C  0.04700802  0.17442488  0.17223623     0.07050
C3656       C  0.05948363  0.16525745  0.19358903    -0.03070
Br3657     Br  0.04057865  0.15070203  0.22057899    -0.01620
Br3658     Br  0.10162282  0.15602413  0.22604910    -0.01690
Br3659     Br  0.04267357  0.21180673  0.13282775    -0.01650
Br3660     Br  0.10403759  0.21226750  0.13352785    -0.01630
C3661       C  0.16093596  0.15908203  0.08502847    -0.02760
C3662       C  0.18206674  0.17284567  0.09212150     0.06920
C3663       C  0.19988179  0.17941951  0.07369958    -0.02870
C3664       C  0.19516794  0.17453896  0.04823668    -0.02870
C3665       C  0.17361087  0.16138122  0.04124950     0.07050
C3666       C  0.15780823  0.15195438  0.06009454    -0.03070
Br3667     Br  0.13367293  0.12664834  0.05247057    -0.01620
Br3668     Br  0.13642944  0.14899175  0.10948086    -0.01690
Br3669     Br  0.21793024  0.18619419  0.02302531    -0.01650
Br3670     Br  0.23045051  0.19571366  0.08298838    -0.01630
C3671       C  0.17990253  0.08376282  0.14907082    -0.02760
C3672       C  0.18587805  0.09282672  0.17283698     0.06920
C3673       C  0.18882012  0.07542030  0.19262576    -0.02870
C3674       C  0.18550063  0.04953374  0.18829364    -0.02870
C3675       C  0.17704477  0.04122902  0.16486249     0.07050
C3676       C  0.17237633  0.05924822  0.14633464    -0.03070
Br3677     Br  0.14922909  0.05337769  0.12010913    -0.01620
Br3678     Br  0.18200786  0.10367219  0.11908277    -0.01690
Br3679     Br  0.19254498  0.02580383  0.21425350    -0.01650
Br3680     Br  0.19964675  0.08643056  0.22498558    -0.01630
loop_ 
_geom_bond_atom_site_label_1 
_geom_bond_atom_site_label_2 
_geom_bond_distance 
_geom_bond_site_symmetry_2 
_ccdc_geom_bond_type 
O1          Cr19   1.954       .  S
O1            C9   1.259       .  A
O2          Cr19   2.012       .  S
O2            C3   1.266       .  A
C3            O4   1.265       .  A
C3         C3662   1.491       .  S
O4          Cr20   1.986       .  S
O5          Cr20   2.011       .  S
O5            C6   1.264       .  A
C6            O7   1.265       .  A
C6         C3652   1.502       .  S
O7          Cr21   1.995       .  S
O8          Cr21   2.025       .  S
O8            C9   1.269       .  A
C9         C3672   1.493       .  S
O10         Cr19   1.981       .  S
O10          C18   1.257       .  A
O11         Cr19   1.956       .  S
O11          C12   1.253       .  A
C12          O13   1.263       .  A
C12          C78   1.460       .  S
O13         Cr20   2.009       .  S
O14         Cr20   1.973       .  S
O14          C15   1.261       .  A
C15          O16   1.270       .  A
C15          C37   1.476       .  S
O16         Cr21   2.027       .  S
O17         Cr21   1.981       .  S
O17          C18   1.261       .  A
C18          C56   1.453       .  S
Cr19         O22   1.779       .  S
Cr20         O22   1.779       .  S
Cr21         O22   1.779       .  S
O23         Cr41   2.013       .  S
O23          C31   1.267       .  A
O24         Cr41   1.993       .  S
O24          C25   1.266       .  A
C25          O26   1.267       .  A
C25        C3632   1.508       .  S
O26         Cr42   2.018       .  S
O27         Cr42   1.986       .  S
O27          C28   1.263       .  A
C28          O29   1.263       .  A
C28        C3622   1.477       .  S
O29         Cr43   1.992       .  S
O30         Cr43   1.994       .  S
O30          C31   1.266       .  A
C31        C3642   1.498       .  S
O32         Cr41   1.984       .  S
O32          C40   1.262       .  A
O33         Cr41   2.006       .  S
O33          C34   1.263       .  A
C34          O35   1.256       .  A
C34          C59   1.459       .  S
O35         Cr42   1.962       .  S
O36         Cr42   2.017       .  S
O36          C37   1.266       .  A
C37          O38   1.259       .  A
O38         Cr43   1.978       .  S
O39         Cr43   1.979       .  S
O39          C40   1.256       .  A
C40          C84   1.453       .  S
Cr41         O44   1.775       .  S
Cr42         O44   1.778       .  S
Cr43         O44   1.775       .  S
O45         Cr63   1.985       .  S
O45          C53   1.264       .  A
O46         Cr63   2.011       .  S
O46          C47   1.267       .  A
C47          O48   1.266       .  A
C47        C3612   1.497       .  S
O48         Cr64   1.995       .  S
O49         Cr64   2.005       .  S
O49          C50   1.264       .  A
C50          O51   1.260       .  A
C50        C3605   1.462       .  S
O51         Cr65   1.965       .  S
O52         Cr65   2.013       .  S
O52          C53   1.266       .  A
C53        C3592   1.495       .  S
O54         Cr63   2.019       .  S
O54          C62   1.265       .  A
O55         Cr63   1.970       .  S
O55          C56   1.260       .  A
C56          O57   1.261       .  A
O57         Cr64   1.993       .  S
O58         Cr64   1.965       .  S
O58          C59   1.256       .  A
C59          O60   1.262       .  A
O60         Cr65   2.003       .  S
O61         Cr65   1.956       .  S
O61          C62   1.256       .  A
C62          C81   1.462       .  S
Cr63         O66   1.770       .  S
Cr64         O66   1.776       .  S
Cr65         O66   1.773       .  S
O67         Cr85   2.014       .  S
O67          C75   1.267       .  A
O68         Cr85   2.001       .  S
O68          C69   1.269       .  A
C69          O70   1.267       .  A
C69        C3572   1.492       .  S
O70         Cr86   2.015       .  S
O71         Cr86   1.986       .  S
O71          C72   1.261       .  A
C72          O73   1.262       .  A
C72        C3562   1.498       .  S
O73         Cr87   2.007       .  S
O74         Cr87   1.971       .  S
O74          C75   1.267       .  A
C75        C3585   1.472       .  S
O76         Cr85   1.986       .  S
O76          C84   1.262       .  A
O77         Cr85   2.003       .  S
O77          C78   1.262       .  A
C78          O79   1.257       .  A
O79         Cr86   1.963       .  S
O80         Cr86   2.017       .  S
O80          C81   1.266       .  A
C81          O82   1.255       .  A
O82         Cr87   1.955       .  S
O83         Cr87   1.980       .  S
O83          C84   1.255       .  A
Cr85         O88   1.779       .  S
Cr86         O88   1.776       .  S
Cr87         O88   1.780       .  S
O89        Cr107   2.005       .  S
O89          C97   1.262       .  A
O90        Cr107   1.987       .  S
O90          C91   1.264       .  A
C91          O92   1.269       .  A
C91        C3532   1.493       .  S
O92        Cr108   2.013       .  S
O93        Cr108   1.982       .  S
O93          C94   1.261       .  A
C94          O95   1.262       .  A
C94        C3552   1.478       .  S
O95        Cr109   2.008       .  S
O96        Cr109   1.999       .  S
O96          C97   1.269       .  A
C97        C3542   1.487       .  S
O98        Cr107   1.987       .  S
O98         C106   1.264       .  A
O99        Cr107   2.003       .  S
O99         C100   1.261       .  A
C100        O101   1.256       .  A
C100        C128   1.463       .  S
O101       Cr108   1.969       .  S
O102       Cr108   2.005       .  S
O102        C103   1.265       .  A
C103        O104   1.262       .  A
C103        C144   1.472       .  S
O104       Cr109   1.983       .  S
O105       Cr109   1.990       .  S
O105        C106   1.259       .  A
C106        C172   1.460       .  S
Cr107       O110   1.783       .  S
Cr108       O110   1.778       .  S
Cr109       O110   1.777       .  S
O111       Cr129   1.994       .  S
O111        C119   1.265       .  A
O112       Cr129   2.012       .  S
O112        C113   1.265       .  A
C113        O114   1.265       .  A
C113       C3522   1.506       .  S
O114       Cr130   1.990       .  S
O115       Cr130   2.010       .  S
O115        C116   1.268       .  A
C116        O117   1.265       .  A
C116       C3512   1.491       .  S
O117       Cr131   1.988       .  S
O118       Cr131   2.012       .  S
O118        C119   1.267       .  A
C119       C3502   1.498       .  S
O120       Cr129   2.006       .  S
O120        C128   1.264       .  A
O121       Cr129   1.975       .  S
O121        C122   1.259       .  A
C122        O123   1.264       .  A
C122        C169   1.466       .  S
O123       Cr130   2.009       .  S
O124       Cr130   1.981       .  S
O124        C125   1.260       .  A
C125        O126   1.261       .  A
C125        C147   1.462       .  S
O126       Cr131   1.998       .  S
O127       Cr131   1.967       .  S
O127        C128   1.256       .  A
Cr129       O132   1.774       .  S
Cr130       O132   1.773       .  S
Cr131       O132   1.777       .  S
O133       Cr151   1.990       .  S
O133        C141   1.263       .  A
O134       Cr151   2.017       .  S
O134        C135   1.268       .  A
C135        O136   1.264       .  A
C135       C3492   1.502       .  S
O136       Cr152   1.992       .  S
O137       Cr152   2.011       .  S
O137        C138   1.268       .  A
C138        O139   1.266       .  A
C138       C3485   1.491       .  S
O139       Cr153   1.987       .  S
O140       Cr153   2.009       .  S
O140        C141   1.262       .  A
C141       C3472   1.502       .  S
O142       Cr151   2.013       .  S
O142        C150   1.267       .  A
O143       Cr151   1.975       .  S
O143        C144   1.258       .  A
C144        O145   1.266       .  A
O145       Cr152   2.014       .  S
O146       Cr152   1.985       .  S
O146        C147   1.261       .  A
C147        O148   1.260       .  A
O148       Cr153   1.998       .  S
O149       Cr153   1.964       .  S
O149        C150   1.258       .  A
C150        C166   1.463       .  S
Cr151       O154   1.773       .  S
Cr152       O154   1.772       .  S
Cr153       O154   1.777       .  S
O155       Cr173   2.009       .  S
O155        C163   1.267       .  A
O156       Cr173   1.997       .  S
O156        C157   1.266       .  A
C157        O158   1.268       .  A
C157       C3442   1.506       .  S
O158       Cr174   2.017       .  S
O159       Cr174   1.995       .  S
O159        C160   1.264       .  A
C160        O161   1.261       .  A
C160       C3462   1.501       .  S
O161       Cr175   2.002       .  S
O162       Cr175   1.985       .  S
O162        C163   1.269       .  A
C163       C3452   1.486       .  S
O164       Cr173   1.992       .  S
O164        C172   1.262       .  A
O165       Cr173   2.004       .  S
O165        C166   1.263       .  A
C166        O167   1.258       .  A
O167       Cr174   1.969       .  S
O168       Cr174   2.014       .  S
O168        C169   1.267       .  A
C169        O170   1.259       .  A
O170       Cr175   1.971       .  S
O171       Cr175   1.984       .  S
O171        C172   1.256       .  A
Cr173       O176   1.776       .  S
Cr174       O176   1.773       .  S
Cr175       O176   1.776       .  S
O177       Cr195   1.994       .  S
O177        C185   1.264       .  A
O178       Cr195   2.011       .  S
O178        C179   1.266       .  A
C179        O180   1.263       .  A
C179       C3432   1.477       .  S
O180       Cr196   1.982       .  S
O181       Cr196   2.011       .  S
O181        C182   1.266       .  A
C182        O183   1.266       .  A
C182       C3422   1.502       .  S
O183       Cr197   1.995       .  S
O184       Cr197   2.000       .  S
O184        C185   1.263       .  A
C185       C3412   1.494       .  S
O186       Cr195   2.001       .  S
O186        C194   1.263       .  A
O187       Cr195   1.963       .  S
O187        C188   1.255       .  A
C188        O189   1.264       .  A
C188        C260   1.464       .  S
O189       Cr196   2.011       .  S
O190       Cr196   1.975       .  S
O190        C191   1.259       .  A
C191        O192   1.261       .  A
C191        C216   1.455       .  S
O192       Cr197   1.996       .  S
O193       Cr197   1.969       .  S
O193        C194   1.259       .  A
C194        C238   1.458       .  S
Cr195       O198   1.778       .  S
Cr196       O198   1.777       .  S
Cr197       O198   1.776       .  S
O199       Cr217   1.984       .  S
O199        C207   1.260       .  A
O200       Cr217   2.002       .  S
O200        C201   1.262       .  A
C201        O202   1.260       .  A
C201       C3382   1.512       .  S
O202       Cr218   1.977       .  S
O203       Cr218   2.017       .  S
O203        C204   1.269       .  A
C204        O205   1.267       .  A
C204       C3402   1.480       .  S
O205       Cr219   1.977       .  S
O206       Cr219   1.993       .  S
O206        C207   1.258       .  A
C207       C3395   1.484       .  S
O208       Cr217   2.004       .  S
O208        C216   1.265       .  A
O209       Cr217   1.963       .  S
O209        C210   1.255       .  A
C210        O211   1.265       .  A
C210        C257   1.462       .  S
O211       Cr218   2.008       .  S
O212       Cr218   1.973       .  S
O212        C213   1.257       .  A
C213        O214   1.255       .  A
C213        C232   1.446       .  S
O214       Cr219   1.981       .  S
O215       Cr219   1.970       .  S
O215        C216   1.260       .  A
Cr217       O220   1.773       .  S
Cr218       O220   1.776       .  S
Cr219       O220   1.776       .  S
O221       Cr239   1.960       .  S
O221        C229   1.264       .  A
O222       Cr239   2.009       .  S
O222        C223   1.266       .  A
C223        O224   1.264       .  A
C223       C3372   1.488       .  S
O224       Cr240   1.983       .  S
O225       Cr240   2.004       .  S
O225        C226   1.261       .  A
C226        O227   1.266       .  A
C226       C3365   1.483       .  S
O227       Cr241   2.000       .  S
O228       Cr241   2.021       .  S
O228        C229   1.267       .  A
C229       C3352   1.477       .  S
O230       Cr239   1.984       .  S
O230        C238   1.257       .  A
O231       Cr239   1.962       .  S
O231        C232   1.255       .  A
C232        O233   1.258       .  A
O233       Cr240   1.990       .  S
O234       Cr240   1.957       .  S
O234        C235   1.255       .  A
C235        O236   1.267       .  A
C235        C254   1.460       .  S
O236       Cr241   2.013       .  S
O237       Cr241   1.984       .  S
O237        C238   1.261       .  A
Cr239       O242   1.777       .  S
Cr240       O242   1.783       .  S
Cr241       O242   1.782       .  S
O243       Cr261   2.005       .  S
O243        C251   1.264       .  A
O244       Cr261   1.989       .  S
O244        C245   1.265       .  A
C245        O246   1.264       .  A
C245       C3332   1.498       .  S
O246       Cr262   2.008       .  S
O247       Cr262   1.974       .  S
O247        C248   1.264       .  A
C248        O249   1.267       .  A
C248       C3322   1.475       .  S
O249       Cr263   2.015       .  S
O250       Cr263   1.992       .  S
O250        C251   1.264       .  A
C251       C3342   1.497       .  S
O252       Cr261   1.966       .  S
O252        C260   1.259       .  A
O253       Cr261   2.005       .  S
O253        C254   1.263       .  A
C254        O255   1.259       .  A
O255       Cr262   1.968       .  S
O256       Cr262   1.999       .  S
O256        C257   1.261       .  A
C257        O258   1.259       .  A
O258       Cr263   1.973       .  S
O259       Cr263   2.012       .  S
O259        C260   1.265       .  A
Cr261       O264   1.770       .  S
Cr262       O264   1.772       .  S
Cr263       O264   1.776       .  S
O265       Cr283   1.992       .  S
O265        C273   1.262       .  A
O266       Cr283   2.002       .  S
O266        C267   1.265       .  A
C267        O268   1.265       .  A
C267       C3302   1.490       .  S
O268       Cr284   1.993       .  S
O269       Cr284   2.004       .  S
O269        C270   1.264       .  A
C270        O271   1.268       .  A
C270       C3292   1.500       .  S
O271       Cr285   1.997       .  S
O272       Cr285   1.994       .  S
O272        C273   1.260       .  A
C273       C3312   1.493       .  S
O274       Cr283   2.000       .  S
O274        C282   1.263       .  A
O275       Cr283   1.966       .  S
O275        C276   1.256       .  A
C276        O277   1.263       .  A
C276        C348   1.463       .  S
O277       Cr284   2.008       .  S
O278       Cr284   1.981       .  S
O278        C279   1.262       .  A
C279        O280   1.259       .  A
C279        C298   1.455       .  S
O280       Cr285   1.990       .  S
O281       Cr285   1.973       .  S
O281        C282   1.260       .  A
C282        C326   1.459       .  S
Cr283       O286   1.775       .  S
Cr284       O286   1.776       .  S
Cr285       O286   1.775       .  S
O287       Cr305   1.997       .  S
O287        C295   1.267       .  A
O288       Cr305   2.002       .  S
O288        C289   1.262       .  A
C289        O290   1.263       .  A
C289       C3262   1.469       .  S
O290       Cr306   1.971       .  S
O291       Cr306   2.008       .  S
O291        C292   1.263       .  A
C292        O293   1.267       .  A
C292       C3282   1.510       .  S
O293       Cr307   2.005       .  S
O294       Cr307   2.008       .  S
O294        C295   1.266       .  A
C295       C3272   1.501       .  S
O296       Cr305   1.993       .  S
O296        C304   1.260       .  A
O297       Cr305   1.977       .  S
O297        C298   1.259       .  A
C298        O299   1.259       .  A
O299       Cr306   1.990       .  S
O300       Cr306   1.950       .  S
O300        C301   1.253       .  A
C301        O302   1.265       .  A
C301        C345   1.455       .  S
O302       Cr307   2.013       .  S
O303       Cr307   1.989       .  S
O303        C304   1.263       .  A
C304        C320   1.465       .  S
Cr305       O308   1.778       .  S
Cr306       O308   1.776       .  S
Cr307       O308   1.775       .  S
O309       Cr327   2.001       .  S
O309        C317   1.266       .  A
O310       Cr327   2.002       .  S
O310        C311   1.263       .  A
C311        O312   1.265       .  A
C311       C3245   1.474       .  S
O312       Cr328   1.977       .  S
O313       Cr328   2.009       .  S
O313        C314   1.263       .  A
C314        O315   1.265       .  A
C314       C3232   1.505       .  S
O315       Cr329   1.997       .  S
O316       Cr329   2.005       .  S
O316        C317   1.266       .  A
C317       C3252   1.502       .  S
O318       Cr327   1.995       .  S
O318        C326   1.261       .  A
O319       Cr327   1.984       .  S
O319        C320   1.261       .  A
C320        O321   1.260       .  A
O321       Cr328   1.996       .  S
O322       Cr328   1.953       .  S
O322        C323   1.255       .  A
C323        O324   1.265       .  A
C323        C342   1.457       .  S
O324       Cr329   2.013       .  S
O325       Cr329   1.977       .  S
O325        C326   1.260       .  A
Cr327       O330   1.779       .  S
Cr328       O330   1.774       .  S
Cr329       O330   1.778       .  S
O331       Cr349   2.015       .  S
O331        C339   1.266       .  A
O332       Cr349   1.984       .  S
O332        C333   1.262       .  A
C333        O334   1.265       .  A
C333       C3202   1.496       .  S
O334       Cr350   2.011       .  S
O335       Cr350   1.967       .  S
O335        C336   1.264       .  A
C336        O337   1.267       .  A
C336       C3222   1.473       .  S
O337       Cr351   2.017       .  S
O338       Cr351   1.970       .  S
O338        C339   1.258       .  A
C339       C3212   1.511       .  S
O340       Cr349   1.966       .  S
O340        C348   1.257       .  A
O341       Cr349   2.014       .  S
O341        C342   1.266       .  A
C342        O343   1.257       .  A
O343       Cr350   1.954       .  S
O344       Cr350   2.002       .  S
O344        C345   1.261       .  A
C345        O346   1.256       .  A
O346       Cr351   1.959       .  S
O347       Cr351   2.008       .  S
O347        C348   1.264       .  A
Cr349       O352   1.770       .  S
Cr350       O352   1.769       .  S
Cr351       O352   1.769       .  S
O353       Cr371   1.987       .  S
O353        C361   1.265       .  A
O354       Cr371   2.013       .  S
O354        C355   1.266       .  A
C355        O356   1.268       .  A
C355       C3182   1.506       .  S
O356       Cr372   1.997       .  S
O357       Cr372   2.006       .  S
O357        C358   1.263       .  A
C358        O359   1.265       .  A
C358       C3192   1.505       .  S
O359       Cr373   1.995       .  S
O360       Cr373   2.011       .  S
O360        C361   1.267       .  A
C361       C3172   1.495       .  S
O362       Cr371   2.013       .  S
O362        C370   1.264       .  A
O363       Cr371   1.969       .  S
O363        C364   1.260       .  A
C364        O365   1.261       .  A
C364        C392   1.460       .  S
O365       Cr372   2.002       .  S
O366       Cr372   1.972       .  S
O366        C367   1.259       .  A
C367        O368   1.264       .  A
C367        C414   1.463       .  S
O368       Cr373   2.004       .  S
O369       Cr373   1.978       .  S
O369        C370   1.259       .  A
C370        C436   1.473       .  S
Cr371       O374   1.771       .  S
Cr372       O374   1.773       .  S
Cr373       O374   1.773       .  S
O375       Cr393   2.023       .  S
O375        C383   1.269       .  A
O376       Cr393   1.975       .  S
O376        C377   1.263       .  A
C377        O378   1.262       .  A
C377       C3162   1.469       .  S
O378       Cr394   2.003       .  S
O379       Cr394   1.991       .  S
O379        C380   1.268       .  A
C380        O381   1.271       .  A
C380       C3142   1.492       .  S
O381       Cr395   2.030       .  S
O382       Cr395   1.959       .  S
O382        C383   1.258       .  A
C383       C3152   1.494       .  S
O384       Cr393   1.948       .  S
O384        C392   1.250       .  A
O385       Cr393   1.993       .  S
O385        C386   1.262       .  A
C386        O387   1.260       .  A
C386        C433   1.448       .  S
O387       Cr394   1.967       .  S
O388       Cr394   1.992       .  S
O388        C389   1.258       .  A
C389        O390   1.254       .  A
C389        C408   1.446       .  S
O390       Cr395   1.960       .  S
O391       Cr395   2.018       .  S
O391        C392   1.266       .  A
Cr393       O396   1.782       .  S
Cr394       O396   1.780       .  S
Cr395       O396   1.781       .  S
O397       Cr415   2.007       .  S
O397        C405   1.263       .  A
O398       Cr415   1.988       .  S
O398        C399   1.261       .  A
C399        O400   1.262       .  A
C399       C3112   1.510       .  S
O400       Cr416   2.007       .  S
O401       Cr416   1.977       .  S
O401        C402   1.265       .  A
C402        O403   1.267       .  A
C402       C3125   1.475       .  S
O403       Cr417   2.018       .  S
O404       Cr417   1.981       .  S
O404        C405   1.263       .  A
C405       C3132   1.473       .  S
O406       Cr415   1.965       .  S
O406        C414   1.256       .  A
O407       Cr415   1.995       .  S
O407        C408   1.262       .  A
C408        O409   1.256       .  A
O409       Cr416   1.959       .  S
O410       Cr416   1.992       .  S
O410        C411   1.259       .  A
C411        O412   1.259       .  A
C411        C430   1.454       .  S
O412       Cr417   1.974       .  S
O413       Cr417   2.009       .  S
O413        C414   1.265       .  A
Cr415       O418   1.777       .  S
Cr416       O418   1.779       .  S
Cr417       O418   1.778       .  S
O419       Cr437   1.996       .  S
O419        C427   1.265       .  A
O420       Cr437   1.993       .  S
O420        C421   1.263       .  A
C421        O422   1.261       .  A
C421       C3092   1.493       .  S
O422       Cr438   1.996       .  S
O423       Cr438   1.995       .  S
O423        C424   1.267       .  A
C424        O425   1.267       .  A
C424       C3102   1.501       .  S
O425       Cr439   2.014       .  S
O426       Cr439   1.987       .  S
O426        C427   1.263       .  A
C427       C3085   1.478       .  S
O428       Cr437   1.976       .  S
O428        C436   1.258       .  A
O429       Cr437   1.989       .  S
O429        C430   1.260       .  A
C430        O431   1.260       .  A
O431       Cr438   1.976       .  S
O432       Cr438   1.985       .  S
O432        C433   1.258       .  A
C433        O434   1.259       .  A
O434       Cr439   1.972       .  S
O435       Cr439   2.014       .  S
O435        C436   1.265       .  A
Cr437       O440   1.775       .  S
Cr438       O440   1.776       .  S
Cr439       O440   1.781       .  S
O441       Cr459   1.981       .  S
O441        C449   1.263       .  A
O442       Cr459   2.016       .  S
O442        C443   1.265       .  A
C443        O444   1.265       .  A
C443       C3055   1.516       .  S
O444       Cr460   2.004       .  S
O445       Cr460   2.017       .  S
O445        C446   1.267       .  A
C446        O447   1.263       .  A
C446       C3062   1.480       .  S
O447       Cr461   1.978       .  S
O448       Cr461   2.016       .  S
O448        C449   1.267       .  A
C449       C3072   1.478       .  S
O450       Cr459   2.001       .  S
O450        C458   1.262       .  A
O451       Cr459   1.954       .  S
O451        C452   1.254       .  A
C452        O453   1.268       .  A
C452        C524   1.463       .  S
O453       Cr460   2.022       .  S
O454       Cr460   1.988       .  S
O454        C455   1.262       .  A
C455        O456   1.261       .  A
C455        C474   1.469       .  S
O456       Cr461   1.999       .  S
O457       Cr461   1.962       .  S
O457        C458   1.255       .  A
C458        C502   1.456       .  S
Cr459       O462   1.782       .  S
Cr460       O462   1.782       .  S
Cr461       O462   1.782       .  S
O463       Cr481   2.000       .  S
O463        C471   1.268       .  A
O464       Cr481   1.992       .  S
O464        C465   1.261       .  A
C465        O466   1.266       .  A
C465       C3032   1.486       .  S
O466       Cr482   1.992       .  S
O467       Cr482   2.008       .  S
O467        C468   1.263       .  A
C468        O469   1.266       .  A
C468       C3042   1.512       .  S
O469       Cr483   1.999       .  S
O470       Cr483   2.006       .  S
O470        C471   1.265       .  A
C471       C3022   1.503       .  S
O472       Cr481   1.983       .  S
O472        C480   1.257       .  A
O473       Cr481   1.985       .  S
O473        C474   1.261       .  A
C474        O475   1.263       .  A
O475       Cr482   2.004       .  S
O476       Cr482   1.963       .  S
O476        C477   1.257       .  A
C477        O478   1.264       .  A
C477        C521   1.459       .  S
O478       Cr483   2.008       .  S
O479       Cr483   1.978       .  S
O479        C480   1.260       .  A
C480        C496   1.451       .  S
Cr481       O484   1.777       .  S
Cr482       O484   1.774       .  S
Cr483       O484   1.777       .  S
O485       Cr503   1.970       .  S
O485        C493   1.260       .  A
O486       Cr503   2.011       .  S
O486        C487   1.267       .  A
C487        O488   1.263       .  A
C487       C2992   1.482       .  S
O488       Cr504   1.985       .  S
O489       Cr504   1.993       .  S
O489        C490   1.261       .  A
C490        O491   1.260       .  A
C490       C3002   1.478       .  S
O491       Cr505   1.983       .  S
O492       Cr505   2.018       .  S
O492        C493   1.266       .  A
C493       C3012   1.480       .  S
O494       Cr503   1.988       .  S
O494        C502   1.259       .  A
O495       Cr503   1.970       .  S
O495        C496   1.257       .  A
C496        O497   1.258       .  A
O497       Cr504   1.988       .  S
O498       Cr504   1.959       .  S
O498        C499   1.256       .  A
C499        O500   1.268       .  A
C499        C518   1.465       .  S
O500       Cr505   2.021       .  S
O501       Cr505   1.976       .  S
O501        C502   1.259       .  A
Cr503       O506   1.775       .  S
Cr504       O506   1.783       .  S
Cr505       O506   1.785       .  S
O507       Cr525   2.020       .  S
O507        C515   1.266       .  A
O508       Cr525   1.985       .  S
O508        C509   1.265       .  A
C509        O510   1.267       .  A
C509       C2975   1.483       .  S
O510       Cr526   2.021       .  S
O511       Cr526   1.973       .  S
O511        C512   1.262       .  A
C512        O513   1.268       .  A
C512       C2982   1.475       .  S
O513       Cr527   2.017       .  S
O514       Cr527   1.974       .  S
O514        C515   1.262       .  A
C515       C2965   1.479       .  S
O516       Cr525   1.971       .  S
O516        C524   1.259       .  A
O517       Cr525   2.009       .  S
O517        C518   1.263       .  A
C518        O519   1.257       .  A
O519       Cr526   1.966       .  S
O520       Cr526   2.004       .  S
O520        C521   1.262       .  A
C521        O522   1.255       .  A
O522       Cr527   1.962       .  S
O523       Cr527   2.001       .  S
O523        C524   1.261       .  A
Cr525       O528   1.776       .  S
Cr526       O528   1.781       .  S
Cr527       O528   1.780       .  S
O529       Cr547   1.996       .  S
O529        C537   1.263       .  A
O530       Cr547   2.016       .  S
O530        C531   1.268       .  A
C531        O532   1.264       .  A
C531       C2952   1.494       .  S
O532       Cr548   1.967       .  S
O533       Cr548   2.017       .  S
O533        C534   1.268       .  A
C534        O535   1.268       .  A
C534       C2942   1.506       .  S
O535       Cr549   1.997       .  S
O536       Cr549   1.998       .  S
O536        C537   1.260       .  A
C537       C2935   1.500       .  S
O538       Cr547   2.016       .  S
O538        C546   1.267       .  A
O539       Cr547   1.980       .  S
O539        C540   1.260       .  A
C540        O541   1.262       .  A
C540        C587   1.474       .  S
O541       Cr548   2.008       .  S
O542       Cr548   1.966       .  S
O542        C543   1.256       .  A
C543        O544   1.257       .  A
C543        C606   1.442       .  S
O544       Cr549   1.986       .  S
O545       Cr549   1.969       .  S
O545        C546   1.260       .  A
C546        C562   1.467       .  S
Cr547       O550   1.776       .  S
Cr548       O550   1.778       .  S
Cr549       O550   1.776       .  S
O551       Cr569   2.013       .  S
O551        C559   1.268       .  A
O552       Cr569   1.990       .  S
O552        C553   1.263       .  A
C553        O554   1.268       .  A
C553       C2905   1.509       .  S
O554       Cr570   2.023       .  S
O555       Cr570   1.991       .  S
O555        C556   1.264       .  A
C556        O557   1.266       .  A
C556       C2922   1.489       .  S
O557       Cr571   2.005       .  S
O558       Cr571   1.988       .  S
O558        C559   1.264       .  A
C559       C2912   1.491       .  S
O560       Cr569   1.983       .  S
O560        C568   1.260       .  A
O561       Cr569   2.015       .  S
O561        C562   1.266       .  A
C562        O563   1.257       .  A
O563       Cr570   1.967       .  S
O564       Cr570   2.019       .  S
O564        C565   1.267       .  A
C565        O566   1.258       .  A
C565        C612   1.474       .  S
O566       Cr571   1.973       .  S
O567       Cr571   1.990       .  S
O567        C568   1.259       .  A
C568        C590   1.459       .  S
Cr569       O572   1.776       .  S
Cr570       O572   1.779       .  S
Cr571       O572   1.777       .  S
O573       Cr591   2.036       .  S
O573        C581   1.273       .  A
O574       Cr591   1.975       .  S
O574        C575   1.262       .  A
C575        O576   1.272       .  A
C575       C2872   1.510       .  S
O576       Cr592   2.035       .  S
O577       Cr592   1.985       .  S
O577        C578   1.260       .  A
C578        O579   1.263       .  A
C578       C2892   1.489       .  S
O579       Cr593   2.006       .  S
O580       Cr593   1.980       .  S
O580        C581   1.264       .  A
C581       C2885   1.492       .  S
O582       Cr591   1.974       .  S
O582        C590   1.257       .  A
O583       Cr591   2.019       .  S
O583        C584   1.267       .  A
C584        O585   1.256       .  A
C584        C609   1.471       .  S
O585       Cr592   1.966       .  S
O586       Cr592   2.034       .  S
O586        C587   1.272       .  A
C587        O588   1.257       .  A
O588       Cr593   1.962       .  S
O589       Cr593   1.997       .  S
O589        C590   1.259       .  A
Cr591       O594   1.778       .  S
Cr592       O594   1.780       .  S
Cr593       O594   1.782       .  S
O595       Cr613   1.964       .  S
O595        C603   1.261       .  A
O596       Cr613   2.024       .  S
O596        C597   1.268       .  A
C597        O598   1.269       .  A
C597       C2855   1.515       .  S
O598       Cr614   2.005       .  S
O599       Cr614   2.008       .  S
O599        C600   1.265       .  A
C600        O601   1.263       .  A
C600       C2842   1.498       .  S
O601       Cr615   1.992       .  S
O602       Cr615   2.002       .  S
O602        C603   1.265       .  A
C603       C2865   1.459       .  S
O604       Cr613   2.020       .  S
O604        C612   1.265       .  A
O605       Cr613   1.958       .  S
O605        C606   1.256       .  A
C606        O607   1.261       .  A
O607       Cr614   1.993       .  S
O608       Cr614   1.979       .  S
O608        C609   1.260       .  A
C609        O610   1.263       .  A
O610       Cr615   2.006       .  S
O611       Cr615   1.974       .  S
O611        C612   1.258       .  A
Cr613       O616   1.777       .  S
Cr614       O616   1.773       .  S
Cr615       O616   1.777       .  S
O617       Cr635   2.013       .  S
O617        C625   1.266       .  A
O618       Cr635   1.970       .  S
O618        C619   1.255       .  A
C619        O620   1.263       .  A
C619       C2832   1.463       .  S
O620       Cr636   1.996       .  S
O621       Cr636   1.957       .  S
O621        C622   1.256       .  A
C622        O623   1.267       .  A
C622       C2812   1.473       .  S
O623       Cr637   2.021       .  S
O624       Cr637   1.986       .  S
O624        C625   1.261       .  A
C625       C2845   1.500       .  S
O626       Cr635   1.967       .  S
O626        C634   1.260       .  A
O627       Cr635   2.030       .  S
O627        C628   1.265       .  A
C628        O629   1.255       .  A
C628       C2802   1.484       .  S
O629       Cr636   1.947       .  S
O630       Cr636   1.999       .  S
O630        C631   1.264       .  A
C631        O632   1.263       .  A
C631       C2822   1.487       .  S
O632       Cr637   1.993       .  S
O633       Cr637   2.018       .  S
O633        C634   1.269       .  A
C634       C2985   1.489       .  S
Cr635       O638   1.785       .  S
Cr636       O638   1.758       .  S
Cr637       O638   1.780       .  S
O639       Cr657   1.974       .  S
O639        C647   1.259       .  A
O640       Cr657   2.012       .  S
O640        C641   1.264       .  A
C641        O642   1.260       .  A
C641       C2785   1.467       .  S
O642       Cr658   1.970       .  S
O643       Cr658   2.010       .  S
O643        C644   1.265       .  A
C644        O645   1.261       .  A
C644       C2792   1.484       .  S
O645       Cr659   1.992       .  S
O646       Cr659   2.021       .  S
O646        C647   1.269       .  A
C647       C3105   1.502       .  S
O648       Cr657   2.021       .  S
O648        C656   1.268       .  A
O649       Cr657   1.980       .  S
O649        C650   1.262       .  A
C650        O651   1.267       .  A
C650       C2825   1.488       .  S
O651       Cr658   2.012       .  S
O652       Cr658   1.955       .  S
O652        C653   1.256       .  A
C653        O654   1.265       .  A
C653       C2772   1.475       .  S
O654       Cr659   2.015       .  S
O655       Cr659   1.983       .  S
O655        C656   1.257       .  A
C656       C2972   1.490       .  S
Cr657       O660   1.780       .  S
Cr658       O660   1.758       .  S
Cr659       O660   1.781       .  S
O661       Cr679   1.955       .  S
O661        C669   1.253       .  A
O662       Cr679   2.014       .  S
O662        C663   1.265       .  A
C663        O664   1.261       .  A
C663       C2815   1.476       .  S
O664       Cr680   1.966       .  S
O665       Cr680   2.019       .  S
O665        C666   1.270       .  A
C666        O667   1.258       .  A
C666       C2762   1.487       .  S
O667       Cr681   1.966       .  S
O668       Cr681   2.013       .  S
O668        C669   1.268       .  A
C669       C2862   1.474       .  S
O670       Cr679   2.023       .  S
O670        C678   1.267       .  A
O671       Cr679   1.971       .  S
O671        C672   1.258       .  A
C672        O673   1.270       .  A
C672       C2742   1.471       .  S
O673       Cr680   2.020       .  S
O674       Cr680   1.950       .  S
O674        C675   1.260       .  A
C675        O676   1.261       .  A
C675       C2752   1.496       .  S
O676       Cr681   2.012       .  S
O677       Cr681   1.958       .  S
O677        C678   1.253       .  A
C678       C3565   1.497       .  S
Cr679       O682   1.788       .  S
Cr680       O682   1.757       .  S
Cr681       O682   1.787       .  S
O683       Cr701   2.020       .  S
O683        C691   1.265       .  A
O684       Cr701   2.003       .  S
O684        C685   1.265       .  A
C685        O686   1.260       .  A
C685       C2725   1.485       .  S
O686       Cr702   1.988       .  S
O687       Cr702   1.952       .  S
O687        C688   1.252       .  A
C688        O689   1.265       .  A
C688       C2782   1.464       .  S
O689       Cr703   2.016       .  S
O690       Cr703   1.959       .  S
O690        C691   1.253       .  A
C691       C3095   1.506       .  S
O692       Cr701   1.979       .  S
O692        C700   1.261       .  A
O693       Cr701   2.023       .  S
O693        C694   1.268       .  A
C694        O695   1.262       .  A
C694       C2732   1.474       .  S
O695       Cr702   1.954       .  S
O696       Cr702   2.010       .  S
O696        C697   1.264       .  A
C697        O698   1.259       .  A
C697       C2745   1.471       .  S
O698       Cr703   1.973       .  S
O699       Cr703   2.023       .  S
O699        C700   1.269       .  A
C700       C3582   1.491       .  S
Cr701       O704   1.786       .  S
Cr702       O704   1.765       .  S
Cr703       O704   1.782       .  S
O705       Cr723   1.969       .  S
O705        C713   1.255       .  A
O706       Cr723   2.027       .  S
O706        C707   1.272       .  A
C707        O708   1.258       .  A
C707       C2702   1.470       .  S
O708       Cr724   1.955       .  S
O709       Cr724   1.981       .  S
O709        C710   1.259       .  A
C710        O711   1.267       .  A
C710       C2695   1.503       .  S
O711       Cr725   1.999       .  S
O712       Cr725   2.010       .  S
O712        C713   1.262       .  A
C713       C3335   1.498       .  S
O714       Cr723   2.032       .  S
O714        C722   1.273       .  A
O715       Cr723   1.983       .  S
O715        C716   1.256       .  A
C716        O717   1.259       .  A
C716       C2712   1.471       .  S
O717       Cr724   1.993       .  S
O718       Cr724   1.974       .  S
O718        C719   1.264       .  A
C719        O720   1.260       .  A
C719       C2682   1.470       .  S
O720       Cr725   2.001       .  S
O721       Cr725   1.961       .  S
O721        C722   1.256       .  A
C722       C2672   1.516       .  S
Cr723       O726   1.780       .  S
Cr724       O726   1.756       .  S
Cr725       O726   1.781       .  S
O727       Cr745   1.980       .  S
O727        C735   1.259       .  A
O728       Cr745   2.037       .  S
O728        C729   1.278       .  A
C729        O730   1.265       .  A
C729       C2715   1.500       .  S
O730       Cr746   1.970       .  S
O731       Cr746   1.973       .  S
O731        C732   1.249       .  A
C732        O733   1.263       .  A
C732       C2662   1.494       .  S
O733       Cr747   2.008       .  S
O734       Cr747   2.025       .  S
O734        C735   1.264       .  A
C735       C2652   1.500       .  S
O736       Cr745   2.037   1_554  S
O736        C744   1.277       .  A
O737       Cr745   1.979   1_554  S
O737        C738   1.256       .  A
C738        O739   1.253   1_554  A
C738       C2755   1.474       .  S
O739       Cr746   1.985       .  S
O740       Cr746   1.971   1_554  S
O740        C741   1.262       .  A
C741        O742   1.269   1_554  A
C741       C2735   1.479       .  S
O742       Cr747   2.025       .  S
O743       Cr747   1.983   1_554  S
O743        C744   1.261       .  A
C744       C3575   1.503       .  S
Cr745       O748   1.780       .  S
Cr746       O748   1.769       .  S
Cr747       O748   1.796       .  S
O749       Cr767   2.025       .  S
O749        C757   1.266       .  A
O750       Cr767   2.001       .  S
O750        C751   1.263       .  A
C751        O752   1.263       .  A
C751       C2642   1.500       .  S
O752       Cr768   2.011       .  S
O753       Cr768   1.954       .  S
O753        C754   1.254       .  A
C754        O755   1.275       .  A
C754       C2705   1.476       .  S
O755       Cr769   2.040       .  S
O756       Cr769   1.960       .  S
O756        C757   1.254       .  A
C757       C3345   1.506       .  S
O758       Cr767   1.972   1_554  S
O758        C766   1.258       .  A
O759       Cr767   2.019       .  S
O759        C760   1.270   1_556  A
C760        O761   1.257       .  A
C760       C2835   1.497       .  S
O761       Cr768   1.951   1_554  S
O762       Cr768   2.017       .  S
O762        C763   1.265   1_556  A
C763        O764   1.255       .  A
C763       C2765   1.484       .  S
O764       Cr769   1.975   1_554  S
O765       Cr769   2.040       .  S
O765        C766   1.274   1_556  A
C766       C2852   1.517       .  S
Cr767       O770   1.770       .  S
Cr768       O770   1.763       .  S
Cr769       O770   1.766       .  S
O771       Cr789   1.974       .  S
O771        C779   1.257       .  A
O772       Cr789   2.015       .  S
O772        C773   1.266       .  A
C773        O774   1.260       .  A
C773       C2692   1.474       .  S
O774       Cr790   1.965       .  S
O775       Cr790   2.005       .  S
O775        C776   1.262       .  A
C776        O777   1.263       .  A
C776       C2645   1.499       .  S
O777       Cr791   1.992       .  S
O778       Cr791   2.019       .  S
O778        C779   1.269       .  A
C779       C3325   1.488       .  S
O780       Cr789   2.018       .  S
O780        C788   1.267       .  A
O781       Cr789   1.984       .  S
O781        C782   1.258       .  A
C782        O783   1.262       .  A
C782       C2622   1.472       .  S
O783       Cr790   2.001       .  S
O784       Cr790   1.960       .  S
O784        C785   1.258       .  A
C785        O786   1.266       .  A
C785       C2632   1.462       .  S
O786       Cr791   2.009       .  S
O787       Cr791   1.986       .  S
O787        C788   1.260       .  A
C788       C3445   1.505       .  S
Cr789       O792   1.778       .  S
Cr790       O792   1.761       .  S
Cr791       O792   1.781       .  S
O793       Cr811   2.021   1_554  S
O793        C801   1.266       .  A
O794       Cr811   1.992   1_554  S
O794        C795   1.261       .  A
C795        O796   1.262   1_554  A
C795       C2805   1.502       .  S
O796       Cr812   1.999       .  S
O797       Cr812   1.954   1_554  S
O797        C798   1.258       .  A
C798        O799   1.270   1_554  A
C798       C2775   1.479       .  S
O799       Cr813   2.025       .  S
O800       Cr813   1.963   1_554  S
O800        C801   1.253       .  A
C801       C2962   1.487       .  S
O802       Cr811   1.971       .  S
O802        C810   1.256       .  A
O803       Cr811   2.008       .  S
O803        C804   1.265       .  A
C804        O805   1.263       .  A
C804       C2635   1.464       .  S
O805       Cr812   1.959       .  S
O806       Cr812   2.024       .  S
O806        C807   1.269       .  A
C807        O808   1.254       .  A
C807       C2612   1.486       .  S
O808       Cr813   1.960       .  S
O809       Cr813   2.027       .  S
O809        C810   1.274       .  A
C810       C3455   1.495       .  S
Cr811       O814   1.788       .  S
Cr812       O814   1.759       .  S
Cr813       O814   1.785       .  S
O815       Cr833   2.018       .  S
O815        C823   1.264       .  A
O816       Cr833   1.997       .  S
O816        C817   1.264       .  A
C817        O818   1.265       .  A
C817       C2602   1.510       .  S
O818       Cr834   2.003       .  S
O819       Cr834   1.966       .  S
O819        C820   1.258       .  A
C820        O821   1.270       .  A
C820       C2592   1.477       .  S
O821       Cr835   2.022       .  S
O822       Cr835   1.968       .  S
O822        C823   1.257       .  A
C823       C3205   1.497       .  S
O824       Cr833   1.974       .  S
O824        C832   1.261       .  A
O825       Cr833   2.017       .  S
O825        C826   1.265       .  A
C826        O827   1.259       .  A
C826       C2615   1.471       .  S
O827       Cr834   1.975       .  S
O828       Cr834   2.008       .  S
O828        C829   1.264       .  A
C829        O830   1.258       .  A
C829       C2625   1.476       .  S
O830       Cr835   1.984       .  S
O831       Cr835   2.018       .  S
O831        C832   1.268       .  A
C832       C3465   1.501       .  S
Cr833       O836   1.773       .  S
Cr834       O836   1.760       .  S
Cr835       O836   1.771       .  S
O837       Cr855   2.010       .  S
O837        C845   1.264       .  A
O838       Cr855   1.979       .  S
O838        C839   1.259       .  A
C839        O840   1.268       .  A
C839       C2582   1.479       .  S
O840       Cr856   2.015       .  S
O841       Cr856   1.934       .  S
O841        C842   1.253       .  A
C842        O843   1.273       .  A
C842       C2605   1.480       .  S
O843       Cr857   2.043       .  S
O844       Cr857   1.972       .  S
O844        C845   1.258       .  A
C845       C3215   1.490       .  S
O846       Cr855   1.946   1_554  S
O846        C854   1.255       .  A
O847       Cr855   2.038       .  S
O847        C848   1.268   1_556  A
C848        O849   1.253       .  A
C848       C2722   1.496       .  S
O849       Cr856   1.954   1_554  S
O850       Cr856   2.000       .  S
O850        C851   1.261   1_556  A
C851        O852   1.259       .  A
C851       C2795   1.478       .  S
O852       Cr857   1.989   1_554  S
O853       Cr857   2.028       .  S
O853        C854   1.272   1_556  A
C854       C3082   1.503       .  S
Cr855       O858   1.775       .  S
Cr856       O858   1.743       .  S
Cr857       O858   1.773       .  S
O859       Cr877   1.974       .  S
O859        C867   1.256       .  A
O860       Cr877   2.021       .  S
O860        C861   1.267       .  A
C861        O862   1.259       .  A
C861       C2595   1.474       .  S
O862       Cr878   1.955       .  S
O863       Cr878   1.996       .  S
O863        C864   1.261       .  A
C864        O865   1.263       .  A
C864       C2585   1.480       .  S
O865       Cr879   1.984       .  S
O866       Cr879   2.014       .  S
O866        C867   1.266       .  A
C867       C3225   1.489       .  S
O868       Cr877   2.039       .  S
O868        C876   1.273       .  A
O869       Cr877   1.969       .  S
O869        C870   1.259       .  A
C870        O871   1.256       .  A
C870       C2685   1.454       .  S
O871       Cr878   1.984       .  S
O872       Cr878   1.950       .  S
O872        C873   1.259       .  A
C873        O874   1.263       .  A
C873       C2665   1.470       .  S
O874       Cr879   2.008       .  S
O875       Cr879   1.981       .  S
O875        C876   1.259       .  A
C876       C2572   1.507       .  S
Cr877       O880   1.788       .  S
Cr878       O880   1.765       .  S
Cr879       O880   1.792       .  S
O881       Cr899   2.041   1_545  S
O881        C889   1.276       .  A
O882       Cr899   1.994   1_545  S
O882        C883   1.262       .  A
C883        O884   1.260   1_545  A
C883       C2532   1.485       .  S
O884       Cr900   1.998       .  S
O885       Cr900   1.943   1_545  S
O885        C886   1.256       .  A
C886        O887   1.272   1_545  A
C886       C2542   1.496       .  S
O887       Cr901   2.043       .  S
O888       Cr901   1.966   1_545  S
O888        C889   1.260       .  A
C889       C3355   1.497       .  S
O890       Cr899   1.979       .  S
O890        C898   1.259       .  A
O891       Cr899   2.047       .  S
O891        C892   1.274       .  A
C892        O893   1.248       .  A
C892       C2552   1.475       .  S
O893       Cr900   1.931       .  S
O894       Cr900   1.997       .  S
O894        C895   1.261       .  A
C895        O896   1.257       .  A
C895       C2562   1.472       .  S
O896       Cr901   1.983       .  S
O897       Cr901   2.016       .  S
O897        C898   1.266       .  A
C898       C3505   1.503       .  S
Cr899       O902   1.775       .  S
Cr900       O902   1.749       .  S
Cr901       O902   1.776       .  S
O903       Cr921   1.958       .  S
O903        C911   1.252       .  A
O904       Cr921   2.034       .  S
O904        C905   1.271       .  A
C905        O906   1.254       .  A
C905       C2522   1.486       .  S
O906       Cr922   1.961       .  S
O907       Cr922   2.003       .  S
O907        C908   1.265       .  A
C908        O909   1.259       .  A
C908       C2565   1.467       .  S
O909       Cr923   1.969       .  S
O910       Cr923   2.020       .  S
O910        C911   1.265       .  A
C911       C3515   1.507       .  S
O912       Cr921   2.018       .  S
O912        C920   1.270       .  A
O913       Cr921   1.970       .  S
O913        C914   1.254       .  A
C914        O915   1.266       .  A
C914       C2502   1.475       .  S
O915       Cr922   2.014       .  S
O916       Cr922   1.963       .  S
O916        C917   1.259       .  A
C917        O918   1.271       .  A
C917       C2512   1.494       .  S
O918       Cr923   2.044       .  S
O919       Cr923   1.956       .  S
O919        C920   1.258       .  A
C920       C2995   1.506       .  S
Cr921       O924   1.776       .  S
Cr922       O924   1.761       .  S
Cr923       O924   1.782       .  S
O925       Cr943   1.968       .  S
O925        C933   1.258       .  A
O926       Cr943   2.020       .  S
O926        C927   1.267       .  A
C927        O928   1.259       .  A
C927       C2555   1.476       .  S
O928       Cr944   1.965       .  S
O929       Cr944   2.018       .  S
O929        C930   1.267       .  A
C930        O931   1.262       .  A
C930       C2525   1.484       .  S
O931       Cr945   1.989       .  S
O932       Cr945   2.021       .  S
O932        C933   1.267       .  A
C933       C3525   1.496       .  S
O934       Cr943   2.022       .  S
O934        C942   1.268       .  A
O935       Cr943   1.980       .  S
O935        C936   1.258       .  A
C936        O937   1.267       .  A
C936       C2482   1.478       .  S
O937       Cr944   2.018       .  S
O938       Cr944   1.967       .  S
O938        C939   1.258       .  A
C939        O940   1.266       .  A
C939       C2492   1.473       .  S
O940       Cr945   2.013       .  S
O941       Cr945   1.969       .  S
O941        C942   1.259       .  A
C942       C3235   1.498       .  S
Cr943       O946   1.775       .  S
Cr944       O946   1.761       .  S
Cr945       O946   1.774       .  S
O947       Cr965   2.016       .  S
O947        C955   1.268       .  A
O948       Cr965   1.983       .  S
O948        C949   1.260       .  A
C949        O950   1.263       .  A
C949       C2455   1.485       .  S
O950       Cr966   2.001       .  S
O951       Cr966   1.973       .  S
O951        C952   1.264       .  A
C952        O953   1.267       .  A
C952       C2515   1.490       .  S
O953       Cr967   2.023       .  S
O954       Cr967   1.990       .  S
O954        C955   1.260       .  A
C955       C3015   1.491       .  S
O956       Cr965   1.966   1_545  S
O956        C964   1.255       .  A
O957       Cr965   2.019       .  S
O957        C958   1.267   1_565  A
C958        O959   1.257       .  A
C958       C2462   1.480       .  S
O959       Cr966   1.970   1_545  S
O960       Cr966   1.978   1_545  S
O960        C961   1.259       .  A
C961        O962   1.264       .  A
C961       C2472   1.476       .  S
O962       Cr967   1.999   1_545  S
O963       Cr967   2.028       .  S
O963        C964   1.269   1_565  A
C964       C2902   1.513       .  S
Cr965       O968   1.777       .  S
Cr966       O968   1.753       .  S
Cr967       O968   1.780       .  S
O969       Cr987   2.038       .  S
O969        C977   1.276       .  A
O970       Cr987   1.954       .  S
O970        C971   1.254       .  A
C971        O972   1.267       .  A
C971       C2432   1.470       .  S
O972       Cr988   2.015       .  S
O973       Cr988   1.960       .  S
O973        C974   1.264       .  A
C974        O975   1.266       .  A
C974       C2422   1.476       .  S
O975       Cr989   2.014       .  S
O976       Cr989   1.984       .  S
O976        C977   1.261       .  A
C977       C3145   1.508       .  S
O978       Cr987   1.963       .  S
O978        C986   1.251       .  A
O979       Cr987   2.031       .  S
O979        C980   1.269       .  A
C980        O981   1.252       .  A
C980       C2495   1.474       .  S
O981       Cr988   1.938       .  S
O982       Cr988   2.005       .  S
O982        C983   1.263       .  A
C983        O984   1.262       .  A
C983       C2442   1.486       .  S
O984       Cr989   1.983       .  S
O985       Cr989   2.021       .  S
O985        C986   1.268       .  A
C986       C3242   1.488       .  S
Cr987       O990   1.787       .  S
Cr988       O990   1.761       .  S
Cr989       O990   1.783       .  S
O991      Cr1009   1.948   1_545  S
O991        C999   1.252       .  A
O992      Cr1009   2.021       .  S
O992        C993   1.272   1_565  A
C993        O994   1.262       .  A
C993       C2412   1.495       .  S
O994      Cr1010   1.964   1_545  S
O995      Cr1010   2.009       .  S
O995        C996   1.265   1_565  A
C996        O997   1.258       .  A
C996       C2402   1.494       .  S
O997      Cr1011   1.987   1_545  S
O998      Cr1011   2.024   1_545  S
O998        C999   1.271       .  A
C999       C2392   1.502       .  S
O1000     Cr1009   2.009       .  S
O1000      C1008   1.262       .  A
O1001     Cr1009   1.979       .  S
O1001      C1002   1.255       .  A
C1002      O1003   1.261       .  A
C1002      C2445   1.480       .  S
O1003     Cr1010   2.000       .  S
O1004     Cr1010   1.971       .  S
O1004      C1005   1.261       .  A
C1005      O1006   1.272       .  A
C1005      C2485   1.492       .  S
O1006     Cr1011   2.032       .  S
O1007     Cr1011   1.967       .  S
O1007      C1008   1.254       .  A
C1008      C3255   1.511       .  S
Cr1009     O1012   1.777       .  S
Cr1010     O1012   1.763       .  S
Cr1011     O1012   1.773       .  S
O1013     Cr1031   1.973       .  S
O1013      C1021   1.258       .  A
O1014     Cr1031   2.035       .  S
O1014      C1015   1.276       .  A
C1015      O1016   1.266       .  A
C1015      C2382   1.475       .  S
O1016     Cr1032   1.962       .  S
O1017     Cr1032   1.990       .  S
O1017      C1018   1.255       .  A
C1018      O1019   1.261       .  A
C1018      C2435   1.479       .  S
O1019     Cr1033   1.993       .  S
O1020     Cr1033   2.011       .  S
O1020      C1021   1.269       .  A
C1021      C3165   1.475       .  S
O1022     Cr1031   2.003       .  S
O1022      C1030   1.263       .  A
O1023     Cr1031   2.002       .  S
O1023      C1024   1.256       .  A
C1024      O1025   1.248       .  A
C1024      C2452   1.482       .  S
O1025     Cr1032   1.979       .  S
O1026     Cr1032   1.975       .  S
O1026      C1027   1.264       .  A
C1027      O1028   1.270       .  A
C1027      C2505   1.494       .  S
O1028     Cr1033   2.020       .  S
O1029     Cr1033   1.945       .  S
O1029      C1030   1.249       .  A
C1030      C3005   1.498       .  S
Cr1031     O1034   1.788       .  S
Cr1032     O1034   1.764       .  S
Cr1033     O1034   1.775       .  S
O1035     Cr1053   1.978       .  S
O1035      C1043   1.263       .  A
O1036     Cr1053   2.035       .  S
O1036      C1037   1.272       .  A
C1037      O1038   1.263       .  A
C1037      C2425   1.478       .  S
O1038     Cr1054   1.955       .  S
O1039     Cr1054   1.977       .  S
O1039      C1040   1.255       .  A
C1040      O1041   1.260       .  A
C1040      C2385   1.504       .  S
O1041     Cr1055   1.994       .  S
O1042     Cr1055   2.008       .  S
O1042      C1043   1.266       .  A
C1043      C3155   1.490       .  S
O1044     Cr1053   2.017       .  S
O1044      C1052   1.267   1_565  A
O1045     Cr1053   2.005   1_545  S
O1045      C1046   1.261       .  A
C1046      O1047   1.254   1_545  A
C1046      C2372   1.482       .  S
O1047     Cr1054   1.972       .  S
O1048     Cr1054   1.967   1_545  S
O1048      C1049   1.259       .  A
C1049      O1050   1.267   1_545  A
C1049      C2362   1.471       .  S
O1050     Cr1055   2.014       .  S
O1051     Cr1055   1.965   1_545  S
O1051      C1052   1.255       .  A
C1052      C3615   1.514       .  S
Cr1053     O1056   1.776       .  S
Cr1054     O1056   1.748       .  S
Cr1055     O1056   1.777       .  S
O1057     Cr1075   2.022       .  S
O1057      C1065   1.265       .  A
O1058     Cr1075   1.989       .  S
O1058      C1059   1.259       .  A
C1059      O1060   1.269       .  A
C1059      C2405   1.484       .  S
O1060     Cr1076   2.020       .  S
O1061     Cr1076   1.945       .  S
O1061      C1062   1.251       .  A
C1062      O1063   1.269       .  A
C1062      C2355   1.470       .  S
O1063     Cr1077   2.022       .  S
O1064     Cr1077   1.964       .  S
O1064      C1065   1.253       .  A
C1065      C2335   1.501       .  S
O1066     Cr1075   1.964       .  S
O1066      C1074   1.257       .  A
O1067     Cr1075   2.021       .  S
O1067      C1068   1.269       .  A
C1068      O1069   1.261       .  A
C1068      C2535   1.467       .  S
O1069     Cr1076   1.965       .  S
O1070     Cr1076   2.045       .  S
O1070      C1071   1.275       .  A
C1071      O1072   1.256       .  A
C1071      C2342   1.510       .  S
O1072     Cr1077   1.964       .  S
O1073     Cr1077   2.034       .  S
O1073      C1074   1.276       .  A
C1074      C3362   1.487       .  S
Cr1075     O1078   1.781       .  S
Cr1076     O1078   1.757       .  S
Cr1077     O1078   1.779       .  S
O1079     Cr1097   1.964       .  S
O1079      C1087   1.258       .  A
O1080     Cr1097   2.030       .  S
O1080      C1081   1.269       .  A
C1081      O1082   1.257       .  A
C1081      C2375   1.481       .  S
O1082     Cr1098   1.935       .  S
O1083     Cr1098   2.016       .  S
O1083      C1084   1.267       .  A
C1084      O1085   1.259       .  A
C1084      C2322   1.498       .  S
O1085     Cr1099   1.984       .  S
O1086     Cr1099   2.020       .  S
O1086      C1087   1.271       .  A
C1087      C3602   1.483       .  S
O1088     Cr1097   2.023       .  S
O1088      C1096   1.268       .  A
O1089     Cr1097   1.985       .  S
O1089      C1090   1.259       .  A
C1090      O1091   1.261       .  A
C1090      C2415   1.467       .  S
O1091     Cr1098   1.998       .  S
O1092     Cr1098   1.935       .  S
O1092      C1093   1.251       .  A
C1093      O1094   1.269       .  A
C1093      C2352   1.465       .  S
O1094     Cr1099   2.025       .  S
O1095     Cr1099   1.971       .  S
O1095      C1096   1.257       .  A
C1096      C2312   1.500       .  S
Cr1097     O1100   1.777       .  S
Cr1098     O1100   1.747       .  S
Cr1099     O1100   1.774       .  S
O1101     Cr1119   2.013       .  S
O1101      C1109   1.265       .  A
O1102     Cr1119   1.991       .  S
O1102      C1103   1.263       .  A
C1103      O1104   1.262       .  A
C1103      C2545   1.482       .  S
O1104     Cr1120   1.997       .  S
O1105     Cr1120   1.957       .  S
O1105      C1106   1.259       .  A
C1106      O1107   1.276       .  A
C1106      C2345   1.481       .  S
O1107     Cr1121   2.043       .  S
O1108     Cr1121   1.975       .  S
O1108      C1109   1.259       .  A
C1109      C3375   1.495       .  S
O1110     Cr1119   1.960       .  S
O1110      C1118   1.256       .  A
O1111     Cr1119   2.025       .  S
O1111      C1112   1.266       .  A
C1112      O1113   1.255       .  A
C1112      C2475   1.492       .  S
O1113     Cr1120   1.952       .  S
O1114     Cr1120   1.990       .  S
O1114      C1115   1.257       .  A
C1115      O1116   1.257       .  A
C1115      C2302   1.470       .  S
O1116     Cr1121   1.991       .  S
O1117     Cr1121   2.031       .  S
O1117      C1118   1.272       .  A
C1118      C2915   1.515       .  S
Cr1119     O1122   1.774       .  S
Cr1120     O1122   1.749       .  S
Cr1121     O1122   1.773       .  S
O1123     Cr1141   2.015       .  S
O1123      C1131   1.263       .  A
O1124     Cr1141   1.977       .  S
O1124      C1125   1.263       .  A
C1125      O1126   1.272       .  A
C1125      C2325   1.500       .  S
O1126     Cr1142   2.027       .  S
O1127     Cr1142   1.965       .  S
O1127      C1128   1.257       .  A
C1128      O1129   1.270       .  A
C1128      C2365   1.475       .  S
O1129     Cr1143   2.027       .  S
O1130     Cr1143   1.973       .  S
O1130      C1131   1.256       .  A
C1131      C3595   1.498       .  S
O1132     Cr1141   1.941       .  S
O1132      C1140   1.252       .  A
O1133     Cr1141   2.005       .  S
O1133      C1134   1.263       .  A
C1134      O1135   1.263       .  A
C1134      C2305   1.504       .  S
O1135     Cr1142   1.987       .  S
O1136     Cr1142   2.034       .  S
O1136      C1137   1.273       .  A
C1137      O1138   1.254       .  A
C1137      C2465   1.484       .  S
O1138     Cr1143   1.974       .  S
O1139     Cr1143   2.033       .  S
O1139      C1140   1.271       .  A
C1140      C2925   1.506       .  S
Cr1141     O1144   1.771       .  S
Cr1142     O1144   1.763       .  S
Cr1143     O1144   1.778       .  S
O1145     Cr1163   1.959       .  S
O1145      C1153   1.259       .  A
O1146     Cr1163   2.023       .  S
O1146      C1147   1.269       .  A
C1147      O1148   1.259       .  A
C1147      C2292   1.478       .  S
O1148     Cr1164   1.970       .  S
O1149     Cr1164   2.017       .  S
O1149      C1150   1.269       .  A
C1150      O1151   1.261       .  A
C1150      C2282   1.484       .  S
O1151     Cr1165   1.988       .  S
O1152     Cr1165   2.013       .  S
O1152      C1153   1.265       .  A
C1153      C3392   1.486       .  S
O1154     Cr1163   2.020   1_455  S
O1154      C1162   1.266       .  A
O1155     Cr1163   1.975   1_455  S
O1155      C1156   1.257       .  A
C1156      O1157   1.264       .  A
C1156      C2272   1.467       .  S
O1157     Cr1164   2.005   1_455  S
O1158     Cr1164   1.957   1_455  S
O1158      C1159   1.255       .  A
C1159      O1160   1.266       .  A
C1159      C2262   1.475       .  S
O1160     Cr1165   2.022   1_455  S
O1161     Cr1165   1.963   1_455  S
O1161      C1162   1.258       .  A
C1162      C2252   1.489       .  S
Cr1163     O1166   1.770       .  S
Cr1164     O1166   1.758       .  S
Cr1165     O1166   1.774       .  S
O1167     Cr1185   2.019       .  S
O1167      C1175   1.268       .  A
O1168     Cr1185   1.993       .  S
O1168      C1169   1.266       .  A
C1169      O1170   1.259       .  A
C1169      C2242   1.481       .  S
O1170     Cr1186   1.984       .  S
O1171     Cr1186   1.959       .  S
O1171      C1172   1.258       .  A
C1172      O1173   1.265       .  A
C1172      C2295   1.477       .  S
O1173     Cr1187   2.020       .  S
O1174     Cr1187   1.977       .  S
O1174      C1175   1.257       .  A
C1175      C3405   1.492       .  S
O1176     Cr1185   1.998       .  S
O1176      C1184   1.262       .  A
O1177     Cr1185   2.012       .  S
O1177      C1178   1.263       .  A
C1178      O1179   1.258       .  A
C1178      C2222   1.475       .  S
O1179     Cr1186   1.956       .  S
O1180     Cr1186   1.983       .  S
O1180      C1181   1.259       .  A
C1181      O1182   1.262       .  A
C1181      C2232   1.468       .  S
O1182     Cr1187   1.984       .  S
O1183     Cr1187   2.024       .  S
O1183      C1184   1.269       .  A
C1184      C2882   1.505       .  S
Cr1185     O1188   1.788       .  S
Cr1186     O1188   1.761       .  S
Cr1187     O1188   1.787       .  S
O1189     Cr1207   2.020       .  S
O1189      C1197   1.269       .  A
O1190     Cr1207   1.993       .  S
O1190      C1191   1.260       .  A
C1191      O1192   1.260       .  A
C1191      C2215   1.514       .  S
O1192     Cr1208   2.002       .  S
O1193     Cr1208   1.954       .  S
O1193      C1194   1.262       .  A
C1194      O1195   1.274       .  A
C1194      C2202   1.487       .  S
O1195     Cr1209   2.028       .  S
O1196     Cr1209   1.962       .  S
O1196      C1197   1.256       .  A
C1197      C3475   1.505       .  S
O1198     Cr1207   1.965       .  S
O1198      C1206   1.256       .  A
O1199     Cr1207   2.028       .  S
O1199      C1200   1.269       .  A
C1200      O1201   1.256       .  A
C1200      C2245   1.497       .  S
O1201     Cr1208   1.955       .  S
O1202     Cr1208   2.002       .  S
O1202      C1203   1.260       .  A
C1203      O1204   1.259       .  A
C1203      C2285   1.490       .  S
O1204     Cr1209   2.002       .  S
O1205     Cr1209   2.016       .  S
O1205      C1206   1.267       .  A
C1206      C3385   1.508       .  S
Cr1207     O1210   1.770       .  S
Cr1208     O1210   1.750       .  S
Cr1209     O1210   1.768       .  S
O1211     Cr1229   2.009   1_455  S
O1211      C1219   1.266       .  A
O1212     Cr1229   1.976   1_455  S
O1212      C1213   1.254       .  A
C1213      O1214   1.261       .  A
C1213      C2192   1.487       .  S
O1214     Cr1230   1.996   1_455  S
O1215     Cr1230   1.963   1_455  S
O1215      C1216   1.261       .  A
C1216      O1217   1.275       .  A
C1216      C2182   1.494       .  S
O1217     Cr1231   2.036   1_455  S
O1218     Cr1231   1.941   1_455  S
O1218      C1219   1.250       .  A
C1219      C3625   1.497       .  S
O1220     Cr1229   1.947       .  S
O1220      C1228   1.249       .  A
O1221     Cr1229   2.015       .  S
O1221      C1222   1.268       .  A
C1222      O1223   1.260       .  A
C1222      C2235   1.491       .  S
O1223     Cr1230   1.947       .  S
O1224     Cr1230   2.008       .  S
O1224      C1225   1.263       .  A
C1225      O1226   1.254       .  A
C1225      C2172   1.495       .  S
O1226     Cr1231   1.972       .  S
O1227     Cr1231   2.022       .  S
O1227      C1228   1.266       .  A
C1228      C2895   1.509       .  S
Cr1229     O1232   1.781       .  S
Cr1230     O1232   1.766       .  S
Cr1231     O1232   1.780       .  S
O1233     Cr1251   2.022       .  S
O1233      C1241   1.270       .  A
O1234     Cr1251   2.008       .  S
O1234      C1235   1.261       .  A
C1235      O1236   1.256       .  A
C1235      C2152   1.491       .  S
O1236     Cr1252   1.993       .  S
O1237     Cr1252   1.965       .  S
O1237      C1238   1.257       .  A
C1238      O1239   1.269       .  A
C1238      C2142   1.470       .  S
O1239     Cr1253   2.025       .  S
O1240     Cr1253   1.968       .  S
O1240      C1241   1.258       .  A
C1241      C3025   1.501       .  S
O1242     Cr1251   1.975       .  S
O1242      C1250   1.260       .  A
O1243     Cr1251   2.042       .  S
O1243      C1244   1.275       .  A
C1244      O1245   1.259       .  A
C1244      C2212   1.482       .  S
O1245     Cr1252   1.958       .  S
O1246     Cr1252   1.989       .  S
O1246      C1247   1.258       .  A
C1247      O1248   1.263       .  A
C1247      C2162   1.487       .  S
O1248     Cr1253   2.003       .  S
O1249     Cr1253   2.015       .  S
O1249      C1250   1.267       .  A
C1250      C3482   1.496       .  S
Cr1251     O1254   1.770       .  S
Cr1252     O1254   1.747       .  S
Cr1253     O1254   1.773       .  S
O1255     Cr1273   2.027   1_455  S
O1255      C1263   1.271       .  A
O1256     Cr1273   1.976   1_455  S
O1256      C1257   1.263       .  A
C1257      O1258   1.268   1_455  A
C1257      C2132   1.484       .  S
O1258     Cr1274   2.023       .  S
O1259     Cr1274   1.953   1_455  S
O1259      C1260   1.259       .  A
C1260      O1261   1.269   1_455  A
C1260      C2125   1.477       .  S
O1261     Cr1275   2.027       .  S
O1262     Cr1275   1.959   1_455  S
O1262      C1263   1.256       .  A
C1263      C3265   1.483       .  S
O1264     Cr1273   1.979       .  S
O1264      C1272   1.259       .  A
O1265     Cr1273   2.024       .  S
O1265      C1266   1.265       .  A
C1266      O1267   1.252       .  A
C1266      C2165   1.483       .  S
O1267     Cr1274   1.952       .  S
O1268     Cr1274   2.003       .  S
O1268      C1269   1.262       .  A
C1269      O1270   1.253       .  A
C1269      C2205   1.467       .  S
O1270     Cr1275   1.971       .  S
O1271     Cr1275   2.020       .  S
O1271      C1272   1.268       .  A
C1272      C3495   1.501       .  S
Cr1273     O1276   1.782       .  S
Cr1274     O1276   1.756       .  S
Cr1275     O1276   1.779       .  S
O1277     Cr1295   1.984       .  S
O1277      C1285   1.265       .  A
O1278     Cr1295   2.026       .  S
O1278      C1279   1.268       .  A
C1279      O1280   1.261       .  A
C1279      C2225   1.477       .  S
O1280     Cr1296   1.955       .  S
O1281     Cr1296   2.021       .  S
O1281      C1282   1.268       .  A
C1282      O1283   1.256       .  A
C1282      C2175   1.491       .  S
O1283     Cr1297   1.975       .  S
O1284     Cr1297   2.031       .  S
O1284      C1285   1.275       .  A
C1285      C2875   1.511       .  S
O1286     Cr1295   2.019       .  S
O1286      C1294   1.265       .  A
O1287     Cr1295   2.003       .  S
O1287      C1288   1.265       .  A
C1288      O1289   1.265       .  A
C1288      C2155   1.494       .  S
O1289     Cr1296   2.006       .  S
O1290     Cr1296   1.943       .  S
O1290      C1291   1.249       .  A
C1291      O1292   1.271       .  A
C1291      C2112   1.478       .  S
O1292     Cr1297   2.040       .  S
O1293     Cr1297   1.970       .  S
O1293      C1294   1.256       .  A
C1294      C3045   1.502       .  S
Cr1295     O1298   1.779       .  S
Cr1296     O1298   1.753       .  S
Cr1297     O1298   1.780       .  S
O1299     Cr1317   2.023   1_455  S
O1299      C1307   1.267       .  A
O1300     Cr1317   1.987   1_455  S
O1300      C1301   1.258       .  A
C1301      O1302   1.254   1_455  A
C1301      C2092   1.490       .  S
O1302     Cr1318   1.986       .  S
O1303     Cr1318   1.991   1_455  S
O1303      C1304   1.267       .  A
C1304      O1305   1.267       .  A
C1304      C2105   1.502       .  S
O1305     Cr1319   2.006   1_455  S
O1306     Cr1319   1.974   1_455  S
O1306      C1307   1.261       .  A
C1307      C3135   1.491       .  S
O1308     Cr1317   1.966       .  S
O1308      C1316   1.258       .  A
O1309     Cr1317   2.032       .  S
O1309      C1310   1.271       .  A
C1310      O1311   1.259       .  A
C1310      C2115   1.476       .  S
O1311     Cr1318   1.964       .  S
O1312     Cr1318   1.980       .  S
O1312      C1313   1.257       .  A
C1313      O1314   1.264       .  A
C1313      C2145   1.480       .  S
O1314     Cr1319   1.998       .  S
O1315     Cr1319   2.009       .  S
O1315      C1316   1.264       .  A
C1316      C3035   1.486       .  S
Cr1317     O1320   1.779       .  S
Cr1318     O1320   1.762       .  S
Cr1319     O1320   1.765       .  S
O1321     Cr1339   1.966       .  S
O1321      C1329   1.259       .  A
O1322     Cr1339   2.043       .  S
O1322      C1323   1.272       .  A
C1323      O1324   1.264       .  A
C1323      C2072   1.502       .  S
O1324     Cr1340   1.974       .  S
O1325     Cr1340   1.981       .  S
O1325      C1326   1.254       .  A
C1326      O1327   1.263       .  A
C1326      C2265   1.505       .  S
O1327     Cr1341   2.012       .  S
O1328     Cr1341   2.018       .  S
O1328      C1329   1.268       .  A
C1329      C2062   1.508       .  S
O1330     Cr1339   2.018       .  S
O1330      C1338   1.267       .  A
O1331     Cr1339   1.995       .  S
O1331      C1332   1.261       .  A
C1332      O1333   1.259       .  A
C1332      C2082   1.480       .  S
O1333     Cr1340   1.986       .  S
O1334     Cr1340   1.971       .  S
O1334      C1335   1.260       .  A
C1335      O1336   1.272       .  A
C1335      C2122   1.485       .  S
O1336     Cr1341   2.034       .  S
O1337     Cr1341   1.988       .  S
O1337      C1338   1.263       .  A
C1338      C3285   1.510       .  S
Cr1339     O1342   1.771       .  S
Cr1340     O1342   1.748       .  S
Cr1341     O1342   1.771       .  S
O1343     Cr1361   2.034       .  S
O1343      C1351   1.272       .  A
O1344     Cr1361   1.993       .  S
O1344      C1345   1.260       .  A
C1345      O1346   1.253       .  A
C1345      C2085   1.480       .  S
O1346     Cr1362   1.984       .  S
O1347     Cr1362   1.969       .  S
O1347      C1348   1.262       .  A
C1348      O1349   1.271       .  A
C1348      C2135   1.500       .  S
O1349     Cr1363   2.030       .  S
O1350     Cr1363   1.961       .  S
O1350      C1351   1.255       .  A
C1351      C3275   1.502       .  S
O1352     Cr1361   1.967       .  S
O1352      C1360   1.259       .  A
O1353     Cr1361   2.045       .  S
O1353      C1354   1.276       .  A
C1354      O1355   1.262       .  A
C1354      C2052   1.490       .  S
O1355     Cr1362   1.964       .  S
O1356     Cr1362   1.995       .  S
O1356      C1357   1.261       .  A
C1357      O1358   1.255       .  A
C1357      C2102   1.463       .  S
O1358     Cr1363   1.978       .  S
O1359     Cr1363   2.021       .  S
O1359      C1360   1.268       .  A
C1360      C3115   1.497       .  S
Cr1361     O1364   1.769       .  S
Cr1362     O1364   1.757       .  S
Cr1363     O1364   1.776       .  S
O1365     Cr1383   1.992       .  S
O1365      C1373   1.261       .  A
O1366     Cr1383   2.024       .  S
O1366      C1367   1.272       .  A
C1367      O1368   1.258       .  A
C1367      C2042   1.493       .  S
O1368     Cr1384   1.940       .  S
O1369     Cr1384   1.988       .  S
O1369      C1370   1.257       .  A
C1370      O1371   1.260       .  A
C1370      C2195   1.493       .  S
O1371     Cr1385   1.994       .  S
O1372     Cr1385   2.002       .  S
O1372      C1373   1.261       .  A
C1373      C3635   1.511       .  S
O1374     Cr1383   2.020       .  S
O1374      C1382   1.270       .  A
O1375     Cr1383   2.017       .  S
O1375      C1376   1.262       .  A
C1376      O1377   1.254       .  A
C1376      C2075   1.498       .  S
O1377     Cr1384   1.987       .  S
O1378     Cr1384   1.970       .  S
O1378      C1379   1.264       .  A
C1379      O1380   1.271       .  A
C1379      C2275   1.486       .  S
O1380     Cr1385   2.016       .  S
O1381     Cr1385   1.945       .  S
O1381      C1382   1.252       .  A
C1382      C2032   1.504       .  S
Cr1383     O1386   1.774       .  S
Cr1384     O1386   1.757       .  S
Cr1385     O1386   1.773       .  S
O1387     Cr1405   1.973       .  S
O1387      C1395   1.256       .  A
O1388     Cr1405   2.030       .  S
O1388      C1389   1.272       .  A
C1389      O1390   1.267       .  A
C1389      C2055   1.492       .  S
O1390     Cr1406   1.986       .  S
O1391     Cr1406   1.983       .  S
O1391      C1392   1.252       .  A
C1392      O1393   1.260       .  A
C1392      C2095   1.487       .  S
O1393     Cr1407   1.989       .  S
O1394     Cr1407   2.013       .  S
O1394      C1395   1.267       .  A
C1395      C3122   1.482       .  S
O1396     Cr1405   2.027       .  S
O1396      C1404   1.271       .  A
O1397     Cr1405   1.986       .  S
O1397      C1398   1.258       .  A
C1398      O1399   1.253       .  A
C1398      C2045   1.472       .  S
O1399     Cr1406   1.983       .  S
O1400     Cr1406   1.977       .  S
O1400      C1401   1.264       .  A
C1401      O1402   1.269       .  A
C1401      C2185   1.486       .  S
O1402     Cr1407   2.019       .  S
O1403     Cr1407   1.968       .  S
O1403      C1404   1.257       .  A
C1404      C3645   1.504       .  S
Cr1405     O1408   1.777       .  S
Cr1406     O1408   1.757       .  S
Cr1407     O1408   1.780       .  S
O1409     Cr1427   2.014       .  S
O1409      C1417   1.264       .  A
O1410     Cr1427   1.986       .  S
O1410      C1411   1.266       .  A
C1411      O1412   1.270       .  A
C1411      C2002   1.498       .  S
O1412     Cr1428   2.022       .  S
O1413     Cr1428   1.967       .  S
O1413      C1414   1.264       .  A
C1414      O1415   1.266       .  A
C1414      C2025   1.478       .  S
O1415     Cr1429   2.017       .  S
O1416     Cr1429   1.995       .  S
O1416      C1417   1.263       .  A
C1417      C2012   1.510       .  S
O1418     Cr1427   1.959       .  S
O1418      C1426   1.256       .  A
O1419     Cr1427   2.006       .  S
O1419      C1420   1.262       .  A
C1420      O1421   1.257       .  A
C1420      C1448   1.460       .  S
O1421     Cr1428   1.970       .  S
O1422     Cr1428   2.002       .  S
O1422      C1423   1.263       .  A
C1423      O1424   1.256       .  A
C1423      C1464   1.457       .  S
O1424     Cr1429   1.963       .  S
O1425     Cr1429   2.015       .  S
O1425      C1426   1.267       .  A
C1426      C1492   1.462       .  S
Cr1427     O1430   1.774       .  S
Cr1428     O1430   1.772       .  S
Cr1429     O1430   1.776       .  S
O1431     Cr1449   2.013       .  S
O1431      C1439   1.268       .  A
O1432     Cr1449   1.988       .  S
O1432      C1433   1.261       .  A
C1433      O1434   1.266       .  A
C1433      C2332   1.510       .  S
O1434     Cr1450   2.018       .  S
O1435     Cr1450   1.997       .  S
O1435      C1436   1.267       .  A
C1436      O1437   1.265       .  A
C1436      C2315   1.503       .  S
O1437     Cr1451   2.013       .  S
O1438     Cr1451   1.969       .  S
O1438      C1439   1.264       .  A
C1439      C2395   1.493       .  S
O1440     Cr1449   1.984       .  S
O1440      C1448   1.259       .  A
O1441     Cr1449   2.016       .  S
O1441      C1442   1.267       .  A
C1442      O1443   1.259       .  A
C1442      C1489   1.466       .  S
O1443     Cr1450   1.967       .  S
O1444     Cr1450   2.015       .  S
O1444      C1445   1.266       .  A
C1445      O1446   1.256       .  A
C1445      C1467   1.464       .  S
O1446     Cr1451   1.963       .  S
O1447     Cr1451   1.990       .  S
O1447      C1448   1.258       .  A
Cr1449     O1452   1.777       .  S
Cr1450     O1452   1.774       .  S
Cr1451     O1452   1.774       .  S
O1453     Cr1471   1.989       .  S
O1453      C1461   1.267       .  A
O1454     Cr1471   2.011       .  S
O1454      C1455   1.263       .  A
C1455      O1456   1.260       .  A
C1455      C2255   1.499       .  S
O1456     Cr1472   1.979       .  S
O1457     Cr1472   2.005       .  S
O1457      C1458   1.266       .  A
C1458      O1459   1.260       .  A
C1458      C2035   1.482       .  S
O1459     Cr1473   1.978       .  S
O1460     Cr1473   2.008       .  S
O1460      C1461   1.269       .  A
C1461      C2065   1.485       .  S
O1462     Cr1471   1.996       .  S
O1462      C1470   1.260       .  A
O1463     Cr1471   1.965       .  S
O1463      C1464   1.257       .  A
C1464      O1465   1.264       .  A
O1465     Cr1472   2.002       .  S
O1466     Cr1472   1.965       .  S
O1466      C1467   1.257       .  A
C1467      O1468   1.263       .  A
O1468     Cr1473   2.009       .  S
O1469     Cr1473   1.974       .  S
O1469      C1470   1.258       .  A
C1470      C1486   1.456       .  S
Cr1471     O1474   1.779       .  S
Cr1472     O1474   1.771       .  S
Cr1473     O1474   1.775       .  S
O1475     Cr1493   1.986       .  S
O1475      C1483   1.266       .  A
O1476     Cr1493   2.034       .  S
O1476      C1477   1.272       .  A
C1477      O1478   1.266       .  A
C1477      C2575   1.490       .  S
O1478     Cr1494   1.982       .  S
O1479     Cr1494   2.007       .  S
O1479      C1480   1.264       .  A
C1480      O1481   1.265       .  A
C1480      C2675   1.501       .  S
O1481     Cr1495   1.999       .  S
O1482     Cr1495   2.014       .  S
O1482      C1483   1.265       .  A
C1483      C2655   1.481       .  S
O1484     Cr1493   2.011       .  S
O1484      C1492   1.265       .  A
O1485     Cr1493   1.979       .  S
O1485      C1486   1.258       .  A
C1486      O1487   1.257       .  A
O1487     Cr1494   1.988       .  S
O1488     Cr1494   1.966       .  S
O1488      C1489   1.257       .  A
C1489      O1490   1.265       .  A
O1490     Cr1495   2.016       .  S
O1491     Cr1495   1.964       .  S
O1491      C1492   1.259       .  A
Cr1493     O1496   1.783       .  S
Cr1494     O1496   1.778       .  S
Cr1495     O1496   1.782       .  S
O1497     Cr1515   2.015       .  S
O1497      C1505   1.266   1_556  A
O1498     Cr1515   1.984   1_554  S
O1498      C1499   1.257       .  A
C1499      O1500   1.266       .  A
C1499      C1972   1.482       .  S
O1500     Cr1516   2.017   1_554  S
O1501     Cr1516   1.961   1_554  S
O1501      C1502   1.257       .  A
C1502      O1503   1.267   1_554  A
C1502      C1962   1.468       .  S
O1503     Cr1517   2.013       .  S
O1504     Cr1517   1.975   1_554  S
O1504      C1505   1.260       .  A
C1505      C3175   1.493       .  S
O1506     Cr1515   1.974       .  S
O1506      C1514   1.259       .  A
O1507     Cr1515   2.021       .  S
O1507      C1508   1.267       .  A
C1508      O1509   1.253       .  A
C1508      C1992   1.469       .  S
O1509     Cr1516   1.955       .  S
O1510     Cr1516   2.020       .  S
O1510      C1511   1.267       .  A
C1511      O1512   1.261       .  A
C1511      C1982   1.495       .  S
O1512     Cr1517   1.990       .  S
O1513     Cr1517   2.019       .  S
O1513      C1514   1.267       .  A
C1514      C3305   1.494       .  S
Cr1515     O1518   1.777       .  S
Cr1516     O1518   1.764       .  S
Cr1517     O1518   1.775       .  S
O1519     Cr1537   1.956       .  S
O1519      C1527   1.257       .  A
O1520     Cr1537   1.997       .  S
O1520      C1521   1.262       .  A
C1521      O1522   1.264       .  A
C1521      C1952   1.471       .  S
O1522     Cr1538   1.977       .  S
O1523     Cr1538   1.983       .  S
O1523      C1524   1.254       .  A
C1524      O1525   1.266       .  A
C1524      C1985   1.497       .  S
O1525     Cr1539   2.025       .  S
O1526     Cr1539   2.013       .  S
O1526      C1527   1.266       .  A
C1527      C3315   1.498       .  S
O1528     Cr1537   2.000   1_545  S
O1528      C1536   1.260       .  A
O1529     Cr1537   2.004   1_545  S
O1529      C1530   1.267       .  A
C1530      O1531   1.252   1_545  A
C1530      C1932   1.481       .  S
O1531     Cr1538   1.970       .  S
O1532     Cr1538   1.967   1_545  S
O1532      C1533   1.264       .  A
C1533      O1534   1.271   1_545  A
C1533      C1942   1.479       .  S
O1534     Cr1539   2.018       .  S
O1535     Cr1539   1.999   1_545  S
O1535      C1536   1.264       .  A
C1536      C2005   1.501       .  S
Cr1537     O1540   1.772       .  S
Cr1538     O1540   1.752       .  S
Cr1539     O1540   1.773       .  S
O1541     Cr1559   1.976       .  S
O1541      C1549   1.259       .  A
O1542     Cr1559   2.027       .  S
O1542      C1543   1.269       .  A
C1543      O1544   1.258       .  A
C1543      C1922   1.484       .  S
O1544     Cr1560   1.959       .  S
O1545     Cr1560   2.021       .  S
O1545      C1546   1.270       .  A
C1546      O1547   1.262       .  A
C1546      C1915   1.477       .  S
O1547     Cr1561   1.971       .  S
O1548     Cr1561   2.011       .  S
O1548      C1549   1.262       .  A
C1549      C3075   1.489       .  S
O1550     Cr1559   2.026       .  S
O1550      C1558   1.270   1_565  A
O1551     Cr1559   1.988   1_545  S
O1551      C1552   1.260       .  A
C1552      O1553   1.265       .  A
C1552      C1892   1.481       .  S
O1553     Cr1560   2.008   1_545  S
O1554     Cr1560   1.983   1_545  S
O1554      C1555   1.260       .  A
C1555      O1556   1.261   1_545  A
C1555      C1902   1.470       .  S
O1556     Cr1561   2.000       .  S
O1557     Cr1561   1.961   1_545  S
O1557      C1558   1.258       .  A
C1558      C2932   1.500       .  S
Cr1559     O1562   1.782       .  S
Cr1560     O1562   1.766       .  S
Cr1561     O1562   1.780       .  S
O1563     Cr1581   1.968       .  S
O1563      C1571   1.260       .  A
O1564     Cr1581   2.009       .  S
O1564      C1565   1.263       .  A
C1565      O1566   1.261       .  A
C1565      C1882   1.468       .  S
O1566     Cr1582   1.967       .  S
O1567     Cr1582   2.036       .  S
O1567      C1568   1.273       .  A
C1568      O1569   1.255       .  A
C1568      C1925   1.508       .  S
O1569     Cr1583   1.965       .  S
O1570     Cr1583   2.029       .  S
O1570      C1571   1.273       .  A
C1571      C3065   1.492       .  S
O1572     Cr1581   2.015   1_455  S
O1572      C1580   1.263       .  A
O1573     Cr1581   1.991   1_455  S
O1573      C1574   1.263       .  A
C1574      O1575   1.268       .  A
C1574      C1975   1.480       .  S
O1575     Cr1582   2.015   1_455  S
O1576     Cr1582   1.956   1_455  S
O1576      C1577   1.253       .  A
C1577      O1578   1.268       .  A
C1577      C1872   1.476       .  S
O1578     Cr1583   2.018   1_455  S
O1579     Cr1583   1.968   1_455  S
O1579      C1580   1.255       .  A
C1580      C3195   1.496       .  S
Cr1581     O1584   1.781       .  S
Cr1582     O1584   1.761       .  S
Cr1583     O1584   1.781       .  S
O1585     Cr1603   2.010       .  S
O1585      C1593   1.265   1_565  A
O1586     Cr1603   1.991   1_545  S
O1586      C1587   1.257       .  A
C1587      O1588   1.259   1_545  A
C1587      C1832   1.476       .  S
O1588     Cr1604   1.998       .  S
O1589     Cr1604   1.961   1_545  S
O1589      C1590   1.262       .  A
C1590      O1591   1.274   1_545  A
C1590      C1842   1.474       .  S
O1591     Cr1605   2.032       .  S
O1592     Cr1605   1.980   1_545  S
O1592      C1593   1.260       .  A
C1593      C3415   1.498       .  S
O1594     Cr1603   1.952       .  S
O1594      C1602   1.253       .  A
O1595     Cr1603   2.026       .  S
O1595      C1596   1.271       .  A
C1596      O1597   1.264       .  A
C1596      C1852   1.499       .  S
O1597     Cr1604   1.970       .  S
O1598     Cr1604   1.992       .  S
O1598      C1599   1.255       .  A
C1599      O1600   1.262       .  A
C1599      C1862   1.492       .  S
O1600     Cr1605   2.005       .  S
O1601     Cr1605   2.028       .  S
O1601      C1602   1.270       .  A
C1602      C3535   1.511       .  S
Cr1603     O1606   1.766       .  S
Cr1604     O1606   1.753       .  S
Cr1605     O1606   1.774       .  S
O1607     Cr1625   1.980       .  S
O1607      C1615   1.257       .  A
O1608     Cr1625   2.025       .  S
O1608      C1609   1.269       .  A
C1609      O1610   1.257       .  A
C1609      C1822   1.479       .  S
O1610     Cr1626   1.955       .  S
O1611     Cr1626   2.014       .  S
O1611      C1612   1.265       .  A
C1612      O1613   1.257       .  A
C1612      C1865   1.499       .  S
O1613     Cr1627   1.985       .  S
O1614     Cr1627   2.018       .  S
O1614      C1615   1.268       .  A
C1615      C3545   1.491       .  S
O1616     Cr1625   2.042       .  S
O1616      C1624   1.273   1_556  A
O1617     Cr1625   1.986   1_554  S
O1617      C1618   1.262       .  A
C1618      O1619   1.266   1_554  A
C1618      C1885   1.489       .  S
O1619     Cr1626   2.004       .  S
O1620     Cr1626   1.942   1_554  S
O1620      C1621   1.255       .  A
C1621      O1622   1.270   1_554  A
C1621      C1912   1.494       .  S
O1622     Cr1627   2.028       .  S
O1623     Cr1627   1.965   1_554  S
O1623      C1624   1.257       .  A
C1624      C3052   1.514       .  S
Cr1625     O1628   1.780       .  S
Cr1626     O1628   1.756       .  S
Cr1627     O1628   1.775       .  S
O1629     Cr1647   2.015       .  S
O1629      C1637   1.265       .  A
O1630     Cr1647   1.984       .  S
O1630      C1631   1.261       .  A
C1631      O1632   1.268       .  A
C1631      C1855   1.486       .  S
O1632     Cr1648   2.022       .  S
O1633     Cr1648   1.953       .  S
O1633      C1634   1.258       .  A
C1634      O1635   1.267       .  A
C1634      C1825   1.480       .  S
O1635     Cr1649   2.017       .  S
O1636     Cr1649   1.972       .  S
O1636      C1637   1.259       .  A
C1637      C3555   1.491       .  S
O1638     Cr1647   1.972   1_455  S
O1638      C1646   1.259       .  A
O1639     Cr1647   2.009   1_455  S
O1639      C1640   1.265       .  A
C1640      O1641   1.260       .  A
C1640      C1955   1.473       .  S
O1641     Cr1648   1.972   1_455  S
O1642     Cr1648   2.005   1_455  S
O1642      C1643   1.265       .  A
C1643      O1644   1.262       .  A
C1643      C1995   1.487       .  S
O1644     Cr1649   1.994   1_455  S
O1645     Cr1649   2.017   1_455  S
O1645      C1646   1.267       .  A
C1646      C3295   1.500       .  S
Cr1647     O1650   1.780       .  S
Cr1648     O1650   1.761       .  S
Cr1649     O1650   1.781       .  S
O1651     Cr1669   1.962   1_455  S
O1651      C1659   1.261       .  A
O1652     Cr1669   2.065   1_455  S
O1652      C1653   1.282       .  A
C1653      O1654   1.253       .  A
C1653      C1935   1.486       .  S
O1654     Cr1670   1.946   1_455  S
O1655     Cr1670   2.045   1_455  S
O1655      C1656   1.276       .  A
C1656      O1657   1.254       .  A
C1656      C1802   1.486       .  S
O1657     Cr1671   1.962   1_455  S
O1658     Cr1671   2.041   1_455  S
O1658      C1659   1.273       .  A
C1659      C2022   1.500       .  S
O1660     Cr1669   2.040       .  S
O1660      C1668   1.273       .  A
O1661     Cr1669   1.968       .  S
O1661      C1662   1.252       .  A
C1662      O1663   1.270       .  A
C1662      C1835   1.476       .  S
O1663     Cr1670   2.030       .  S
O1664     Cr1670   1.940       .  S
O1664      C1665   1.247       .  A
C1665      O1666   1.273       .  A
C1665      C1812   1.472       .  S
O1666     Cr1671   2.045       .  S
O1667     Cr1671   1.953       .  S
O1667      C1668   1.255       .  A
C1668      C3425   1.504       .  S
Cr1669     O1672   1.773       .  S
Cr1670     O1672   1.766       .  S
Cr1671     O1672   1.775       .  S
O1673     Cr1691   1.951   1_554  S
O1673      C1681   1.252       .  A
O1674     Cr1691   2.017       .  S
O1674      C1675   1.268   1_556  A
C1675      O1676   1.258       .  A
C1675      C1795   1.484       .  S
O1676     Cr1692   1.952   1_554  S
O1677     Cr1692   1.999       .  S
O1677      C1678   1.266   1_556  A
C1678      O1679   1.262       .  A
C1678      C1905   1.480       .  S
O1679     Cr1693   1.986   1_554  S
O1680     Cr1693   2.035       .  S
O1680      C1681   1.270   1_556  A
C1681      C2945   1.506       .  S
O1682     Cr1691   2.024       .  S
O1682      C1690   1.271       .  A
O1683     Cr1691   1.963       .  S
O1683      C1684   1.254       .  A
C1684      O1685   1.263       .  A
C1684      C1815   1.496       .  S
O1685     Cr1692   2.002       .  S
O1686     Cr1692   1.949       .  S
O1686      C1687   1.257       .  A
C1687      O1688   1.268       .  A
C1687      C1845   1.475       .  S
O1688     Cr1693   2.024       .  S
O1689     Cr1693   1.974       .  S
O1689      C1690   1.258       .  A
C1690      C3435   1.493       .  S
Cr1691     O1694   1.776       .  S
Cr1692     O1694   1.758       .  S
Cr1693     O1694   1.784       .  S
O1695     Cr1713   2.026       .  S
O1695      C1703   1.272   1_565  A
O1696     Cr1713   1.972   1_545  S
O1696      C1697   1.252       .  A
C1697      O1698   1.267   1_545  A
C1697      C1772   1.491       .  S
O1698     Cr1714   2.018       .  S
O1699     Cr1714   1.939   1_545  S
O1699      C1700   1.258       .  A
C1700      O1701   1.271   1_545  A
C1700      C1782   1.485       .  S
O1701     Cr1715   2.036       .  S
O1702     Cr1715   1.971   1_545  S
O1702      C1703   1.262       .  A
C1703      C3675   1.500       .  S
O1704     Cr1713   1.961       .  S
O1704      C1712   1.256       .  A
O1705     Cr1713   2.046       .  S
O1705      C1706   1.274       .  A
C1706      O1707   1.248       .  A
C1706      C1875   1.471       .  S
O1707     Cr1714   1.930       .  S
O1708     Cr1714   1.988       .  S
O1708      C1709   1.258       .  A
C1709      O1710   1.263       .  A
C1709      C1965   1.503       .  S
O1710     Cr1715   1.995       .  S
O1711     Cr1715   2.033       .  S
O1711      C1712   1.271       .  A
C1712      C3185   1.503       .  S
Cr1713     O1716   1.779       .  S
Cr1714     O1716   1.746       .  S
Cr1715     O1716   1.774       .  S
O1717     Cr1735   2.029       .  S
O1717      C1725   1.271       .  A
O1718     Cr1735   1.982       .  S
O1718      C1719   1.259       .  A
C1719      O1720   1.260       .  A
C1719      C1805   1.469       .  S
O1720     Cr1736   1.994       .  S
O1721     Cr1736   1.956       .  S
O1721      C1722   1.256       .  A
C1722      O1723   1.271       .  A
C1722      C1945   1.472       .  S
O1723     Cr1737   2.030       .  S
O1724     Cr1737   1.966       .  S
O1724      C1725   1.259       .  A
C1725      C2015   1.503       .  S
O1726     Cr1735   1.972   1_554  S
O1726      C1734   1.257       .  A
O1727     Cr1735   2.025       .  S
O1727      C1728   1.270   1_556  A
C1728      O1729   1.258       .  A
C1728      C1765   1.471       .  S
O1729     Cr1736   1.952   1_554  S
O1730     Cr1736   2.007       .  S
O1730      C1731   1.262   1_556  A
C1731      O1732   1.257       .  A
C1731      C1785   1.486       .  S
O1732     Cr1737   1.976   1_554  S
O1733     Cr1737   2.023       .  S
O1733      C1734   1.269   1_556  A
C1734      C3665   1.492       .  S
Cr1735     O1738   1.770       .  S
Cr1736     O1738   1.755       .  S
Cr1737     O1738   1.772       .  S
O1739     Cr1757   2.016   1_455  S
O1739      C1747   1.264       .  A
O1740     Cr1757   1.969   1_455  S
O1740      C1741   1.259       .  A
C1741      O1742   1.263       .  A
C1741      C1762   1.494       .  S
O1742     Cr1758   2.001   1_455  S
O1743     Cr1758   1.947   1_455  S
O1743      C1744   1.254       .  A
C1744      O1745   1.275       .  A
C1744      C1775   1.473       .  S
O1745     Cr1759   2.040   1_455  S
O1746     Cr1759   1.977   1_455  S
O1746      C1747   1.257       .  A
C1747      C3655   1.506       .  S
O1748     Cr1757   1.937       .  S
O1748      C1756   1.249       .  A
O1749     Cr1757   2.011       .  S
O1749      C1750   1.267       .  A
C1750      O1751   1.260       .  A
C1750      C1792   1.494       .  S
O1751     Cr1758   1.962       .  S
O1752     Cr1758   2.023       .  S
O1752      C1753   1.267       .  A
C1753      O1754   1.254       .  A
C1753      C1895   1.486       .  S
O1754     Cr1759   1.978       .  S
O1755     Cr1759   2.035       .  S
O1755      C1756   1.274       .  A
C1756      C2955   1.507       .  S
Cr1757     O1760   1.778       .  S
Cr1758     O1760   1.768       .  S
Cr1759     O1760   1.777       .  S
C1761      C1762   1.424       .  A
C1761      C1766   1.406       .  A
C1761     Br1768   1.938   1_455  S
C1762      C1763   1.418       .  A
C1763      C1764   1.404       .  A
C1763     Br1770   1.921       .  S
C1764      C1765   1.403       .  A
C1764     Br1769   1.932       .  S
C1765      C1766   1.409       .  A
C1766     Br1767   1.937   1_554  S
C1771      C1772   1.409       .  A
C1771      C1776   1.399       .  A
C1771     Br1778   1.927   1_545  S
C1772      C1773   1.419       .  A
C1773      C1774   1.413       .  A
C1773     Br1780   1.928       .  S
C1774      C1775   1.408       .  A
C1774     Br1779   1.926       .  S
C1775      C1776   1.408       .  A
C1776     Br1777   1.929       .  S
C1781      C1782   1.416       .  A
C1781      C1786   1.401       .  A
C1781     Br1788   1.944       .  S
C1782      C1783   1.415       .  A
C1783      C1784   1.411       .  A
C1783     Br1790   1.935       .  S
C1784      C1785   1.418       .  A
C1784     Br1789   1.936       .  S
C1785      C1786   1.416       .  A
C1786     Br1787   1.939       .  S
C1791      C1792   1.424       .  A
C1791      C1796   1.413       .  A
C1791     Br1798   1.936       .  S
C1792      C1793   1.417       .  A
C1793      C1794   1.401       .  A
C1793     Br1800   1.932       .  S
C1794      C1795   1.408       .  A
C1794     Br1799   1.929       .  S
C1795      C1796   1.412       .  A
C1796     Br1797   1.934       .  S
C1801      C1802   1.411       .  A
C1801      C1806   1.402       .  A
C1801     Br1808   1.918       .  S
C1802      C1803   1.407       .  A
C1803      C1804   1.405       .  A
C1803     Br1810   1.923   1_455  S
C1804      C1805   1.410       .  A
C1804     Br1809   1.927       .  S
C1805      C1806   1.405       .  A
C1806     Br1807   1.926       .  S
C1811      C1812   1.400       .  A
C1811      C1816   1.408       .  A
C1811     Br1818   1.919       .  S
C1812      C1813   1.409       .  A
C1813      C1814   1.404       .  A
C1813     Br1820   1.937       .  S
C1814      C1815   1.421       .  A
C1814     Br1819   1.940       .  S
C1815      C1816   1.425       .  A
C1816     Br1817   1.935       .  S
C1821      C1822   1.412       .  A
C1821      C1826   1.410       .  A
C1821     Br1828   1.932       .  S
C1822      C1823   1.415       .  A
C1823      C1824   1.401       .  A
C1823     Br1830   1.939       .  S
C1824      C1825   1.412       .  A
C1824     Br1829   1.941       .  S
C1825      C1826   1.414       .  A
C1826     Br1827   1.933       .  S
C1831      C1832   1.409       .  A
C1831      C1836   1.404       .  A
C1831     Br1838   1.925   1_545  S
C1832      C1833   1.411       .  A
C1833      C1834   1.412       .  A
C1833     Br1840   1.929       .  S
C1834      C1835   1.410       .  A
C1834     Br1839   1.929       .  S
C1835      C1836   1.405       .  A
C1836     Br1837   1.927       .  S
C1841      C1842   1.409       .  A
C1841      C1846   1.411       .  A
C1841     Br1848   1.927       .  S
C1842      C1843   1.410       .  A
C1843      C1844   1.399       .  A
C1843     Br1850   1.934       .  S
C1844      C1845   1.412       .  A
C1844     Br1849   1.938       .  S
C1845      C1846   1.414       .  A
C1846     Br1847   1.930       .  S
C1851      C1852   1.407       .  A
C1851      C1856   1.396       .  A
C1851     Br1858   1.930       .  S
C1852      C1853   1.420       .  A
C1853      C1854   1.419       .  A
C1853     Br1860   1.928       .  S
C1854      C1855   1.415       .  A
C1854     Br1859   1.929       .  S
C1855      C1856   1.408       .  A
C1856     Br1857   1.918       .  S
C1861      C1862   1.418       .  A
C1861      C1866   1.399       .  A
C1861     Br1868   1.949       .  S
C1862      C1863   1.417       .  A
C1863      C1864   1.419       .  A
C1863     Br1870   1.933       .  S
C1864      C1865   1.419       .  A
C1864     Br1869   1.933       .  S
C1865      C1866   1.413       .  A
C1866     Br1867   1.921       .  S
C1871      C1872   1.410       .  A
C1871      C1876   1.407       .  A
C1871     Br1878   1.916       .  S
C1872      C1873   1.412       .  A
C1873      C1874   1.400       .  A
C1873     Br1880   1.939       .  S
C1874      C1875   1.417       .  A
C1874     Br1879   1.943       .  S
C1875      C1876   1.405       .  A
C1876     Br1877   1.927       .  S
C1881      C1882   1.408       .  A
C1881      C1886   1.410       .  A
C1881     Br1888   1.926       .  S
C1882      C1883   1.401       .  A
C1883      C1884   1.398       .  A
C1883     Br1890   1.930       .  S
C1884      C1885   1.412       .  A
C1884     Br1889   1.917   1_554  S
C1885      C1886   1.413       .  A
C1886     Br1887   1.915       .  S
C1891      C1892   1.409       .  A
C1891      C1896   1.411       .  A
C1891     Br1898   1.918       .  S
C1892      C1893   1.410       .  A
C1893      C1894   1.407       .  A
C1893     Br1900   1.926   1_545  S
C1894      C1895   1.405       .  A
C1894     Br1899   1.923       .  S
C1895      C1896   1.409       .  A
C1896     Br1897   1.922       .  S
C1901      C1902   1.406       .  A
C1901      C1906   1.407       .  A
C1901     Br1908   1.917       .  S
C1902      C1903   1.406       .  A
C1903      C1904   1.403       .  A
C1903     Br1910   1.929   1_545  S
C1904      C1905   1.411       .  A
C1904     Br1909   1.929   1_554  S
C1905      C1906   1.409       .  A
C1906     Br1907   1.922       .  S
C1911      C1912   1.418       .  A
C1911      C1916   1.398       .  A
C1911     Br1918   1.940       .  S
C1912      C1913   1.421       .  A
C1913      C1914   1.414       .  A
C1913     Br1920   1.933       .  S
C1914      C1915   1.412       .  A
C1914     Br1919   1.932       .  S
C1915      C1916   1.405       .  A
C1916     Br1917   1.928       .  S
C1921      C1922   1.407       .  A
C1921      C1926   1.404       .  A
C1921     Br1928   1.936       .  S
C1922      C1923   1.410       .  A
C1923      C1924   1.417       .  A
C1923     Br1930   1.933       .  S
C1924      C1925   1.428       .  A
C1924     Br1929   1.933       .  S
C1925      C1926   1.416       .  A
C1926     Br1927   1.921       .  S
C1931      C1932   1.409       .  A
C1931      C1936   1.396       .  A
C1931     Br1938   1.928       .  S
C1932      C1933   1.431       .  A
C1933      C1934   1.411       .  A
C1933     Br1940   1.932   1_545  S
C1934      C1935   1.400       .  A
C1934     Br1939   1.928   1_455  S
C1935      C1936   1.407       .  A
C1936     Br1937   1.934       .  S
C1941      C1942   1.415       .  A
C1941      C1946   1.408       .  A
C1941     Br1948   1.924       .  S
C1942      C1943   1.411       .  A
C1943      C1944   1.402       .  A
C1943     Br1950   1.937       .  S
C1944      C1945   1.413       .  A
C1944     Br1949   1.935       .  S
C1945      C1946   1.406       .  A
C1946     Br1947   1.929       .  S
C1951      C1952   1.412       .  A
C1951      C1956   1.404       .  A
C1951     Br1958   1.929       .  S
C1952      C1953   1.405       .  A
C1953      C1954   1.401       .  A
C1953     Br1960   1.931       .  S
C1954      C1955   1.407       .  A
C1954     Br1959   1.913       .  S
C1955      C1956   1.408       .  A
C1956     Br1957   1.925       .  S
C1961      C1962   1.402       .  A
C1961      C1966   1.408       .  A
C1961     Br1968   1.928       .  S
C1962      C1963   1.403       .  A
C1963      C1964   1.403       .  A
C1963     Br1970   1.938   1_554  S
C1964      C1965   1.428       .  A
C1964     Br1969   1.937       .  S
C1965      C1966   1.420       .  A
C1966     Br1967   1.916       .  S
C1971      C1972   1.408       .  A
C1971      C1976   1.409       .  A
C1971     Br1978   1.926       .  S
C1972      C1973   1.410       .  A
C1973      C1974   1.412       .  A
C1973     Br1980   1.928       .  S
C1974      C1975   1.410       .  A
C1974     Br1979   1.929       .  S
C1975      C1976   1.409       .  A
C1976     Br1977   1.928       .  S
C1981      C1982   1.411       .  A
C1981      C1986   1.405       .  A
C1981     Br1988   1.932       .  S
C1982      C1983   1.417       .  A
C1983      C1984   1.420       .  A
C1983     Br1990   1.929       .  S
C1984      C1985   1.414       .  A
C1984     Br1989   1.929       .  S
C1985      C1986   1.419       .  A
C1986     Br1987   1.933       .  S
C1991      C1992   1.403       .  A
C1991      C1996   1.403       .  A
C1991     Br1998   1.927       .  S
C1992      C1993   1.408       .  A
C1993      C1994   1.408       .  A
C1993     Br2000   1.927       .  S
C1994      C1995   1.409       .  A
C1994     Br1999   1.910       .  S
C1995      C1996   1.413       .  A
C1996     Br1997   1.922   1_455  S
C2001      C2002   1.417       .  A
C2001      C2006   1.413       .  A
C2001     Br2008   1.936       .  S
C2002      C2003   1.418       .  A
C2003      C2004   1.414       .  A
C2003     Br2010   1.932       .  S
C2004      C2005   1.412       .  A
C2004     Br2009   1.932       .  S
C2005      C2006   1.420       .  A
C2006     Br2007   1.936       .  S
C2011      C2012   1.424       .  A
C2011      C2016   1.419       .  A
C2011     Br2018   1.935       .  S
C2012      C2013   1.423       .  A
C2013      C2014   1.410       .  A
C2013     Br2020   1.937       .  S
C2014      C2015   1.411       .  A
C2014     Br2019   1.936       .  S
C2015      C2016   1.416       .  A
C2016     Br2017   1.932       .  S
C2021      C2022   1.411       .  A
C2021      C2026   1.425       .  A
C2021     Br2028   1.924       .  S
C2022      C2023   1.408       .  A
C2023      C2024   1.394       .  A
C2023     Br2030   1.879       .  S
C2024      C2025   1.395       .  A
C2024     Br2029   1.944       .  S
C2025      C2026   1.421       .  A
C2026     Br2027   1.927       .  S
C2031      C2032   1.420       .  A
C2031      C2036   1.416       .  A
C2031     Br2038   1.931       .  S
C2032      C2033   1.428       .  A
C2033      C2034   1.402       .  A
C2033     Br2040   1.941       .  S
C2034      C2035   1.403       .  A
C2034     Br2039   1.930       .  S
C2035      C2036   1.412       .  A
C2036     Br2037   1.931       .  S
C2041      C2042   1.423       .  A
C2041      C2046   1.413       .  A
C2041     Br2048   1.934       .  S
C2042      C2043   1.419       .  A
C2043      C2044   1.391       .  A
C2043     Br2050   1.941       .  S
C2044      C2045   1.407       .  A
C2044     Br2049   1.934       .  S
C2045      C2046   1.410       .  A
C2046     Br2047   1.933       .  S
C2051      C2052   1.410       .  A
C2051      C2056   1.416       .  A
C2051     Br2058   1.927       .  S
C2052      C2053   1.413       .  A
C2053      C2054   1.409       .  A
C2053     Br2060   1.931       .  S
C2054      C2055   1.411       .  A
C2054     Br2059   1.932       .  S
C2055      C2056   1.416       .  A
C2056     Br2057   1.927       .  S
C2061      C2062   1.419       .  A
C2061      C2066   1.401       .  A
C2061     Br2068   1.927       .  S
C2062      C2063   1.422       .  A
C2063      C2064   1.418       .  A
C2063     Br2070   1.932       .  S
C2064      C2065   1.413       .  A
C2064     Br2069   1.931       .  S
C2065      C2066   1.406       .  A
C2066     Br2067   1.932       .  S
C2071      C2072   1.407       .  A
C2071      C2076   1.400       .  A
C2071     Br2078   1.932       .  S
C2072      C2073   1.418       .  A
C2073      C2074   1.422       .  A
C2073     Br2080   1.927       .  S
C2074      C2075   1.419       .  A
C2074     Br2079   1.930       .  S
C2075      C2076   1.419       .  A
C2076     Br2077   1.937       .  S
C2081      C2082   1.413       .  A
C2081      C2086   1.411       .  A
C2081     Br2088   1.931       .  S
C2082      C2083   1.414       .  A
C2083      C2084   1.396       .  A
C2083     Br2090   1.934       .  S
C2084      C2085   1.417       .  A
C2084     Br2089   1.949       .  S
C2085      C2086   1.414       .  A
C2086     Br2087   1.929       .  S
C2091      C2092   1.422       .  A
C2091      C2096   1.397       .  A
C2091     Br2098   1.951       .  S
C2092      C2093   1.421       .  A
C2093      C2094   1.413       .  A
C2093     Br2100   1.936       .  S
C2094      C2095   1.414       .  A
C2094     Br2099   1.935       .  S
C2095      C2096   1.417       .  A
C2096     Br2097   1.944       .  S
C2101      C2102   1.394       .  A
C2101      C2106   1.396       .  A
C2101     Br2108   1.929       .  S
C2102      C2103   1.400       .  A
C2103      C2104   1.411       .  A
C2103     Br2110   1.928       .  S
C2104      C2105   1.432       .  A
C2104     Br2109   1.935       .  S
C2105      C2106   1.423       .  A
C2106     Br2107   1.922       .  S
C2111      C2112   1.414       .  A
C2111      C2116   1.400       .  A
C2111     Br2118   1.941       .  S
C2112      C2113   1.410       .  A
C2113      C2114   1.413       .  A
C2113     Br2120   1.918       .  S
C2114      C2115   1.408       .  A
C2114     Br2119   1.927       .  S
C2115      C2116   1.408       .  A
C2116     Br2117   1.926       .  S
C2121      C2122   1.410       .  A
C2121      C2126   1.412       .  A
C2121     Br2128   1.915       .  S
C2122      C2123   1.411       .  A
C2123      C2124   1.403       .  A
C2123     Br2130   1.920       .  S
C2124      C2125   1.407       .  A
C2124     Br2129   1.935   1_455  S
C2125      C2126   1.410       .  A
C2126     Br2127   1.929       .  S
C2131      C2132   1.415       .  A
C2131      C2136   1.419       .  A
C2131     Br2138   1.930       .  S
C2132      C2133   1.407       .  A
C2133      C2134   1.396       .  A
C2133     Br2140   1.927       .  S
C2134      C2135   1.408       .  A
C2134     Br2139   1.927       .  S
C2135      C2136   1.419       .  A
C2136     Br2137   1.927       .  S
C2141      C2142   1.406       .  A
C2141      C2146   1.404       .  A
C2141     Br2148   1.933       .  S
C2142      C2143   1.409       .  A
C2143      C2144   1.409       .  A
C2143     Br2150   1.929       .  S
C2144      C2145   1.411       .  A
C2144     Br2149   1.928       .  S
C2145      C2146   1.417       .  A
C2146     Br2147   1.933       .  S
C2151      C2152   1.416       .  A
C2151      C2156   1.400       .  A
C2151     Br2158   1.938       .  S
C2152      C2153   1.416       .  A
C2153      C2154   1.418       .  A
C2153     Br2160   1.928       .  S
C2154      C2155   1.415       .  A
C2154     Br2159   1.927       .  S
C2155      C2156   1.413       .  A
C2156     Br2157   1.927       .  S
C2161      C2162   1.417       .  A
C2161      C2166   1.398       .  A
C2161     Br2168   1.933       .  S
C2162      C2163   1.414       .  A
C2163      C2164   1.413       .  A
C2163     Br2170   1.926       .  S
C2164      C2165   1.414       .  A
C2164     Br2169   1.931       .  S
C2165      C2166   1.413       .  A
C2166     Br2167   1.945       .  S
C2171      C2172   1.416       .  A
C2171      C2176   1.402       .  A
C2171     Br2178   1.932       .  S
C2172      C2173   1.423       .  A
C2173      C2174   1.414       .  A
C2173     Br2180   1.934       .  S
C2174      C2175   1.412       .  A
C2174     Br2179   1.928       .  S
C2175      C2176   1.405       .  A
C2176     Br2177   1.923       .  S
C2181      C2182   1.417       .  A
C2181      C2186   1.407       .  A
C2181     Br2188   1.925       .  S
C2182      C2183   1.414       .  A
C2183      C2184   1.413       .  A
C2183     Br2190   1.929       .  S
C2184      C2185   1.415       .  A
C2184     Br2189   1.933       .  S
C2185      C2186   1.408       .  A
C2186     Br2187   1.936       .  S
C2191      C2192   1.412       .  A
C2191      C2196   1.406       .  A
C2191     Br2198   1.939   1_455  S
C2192      C2193   1.412       .  A
C2193      C2194   1.410       .  A
C2193     Br2200   1.933       .  S
C2194      C2195   1.416       .  A
C2194     Br2199   1.925       .  S
C2195      C2196   1.420       .  A
C2196     Br2197   1.936       .  S
C2201      C2202   1.417       .  A
C2201      C2206   1.403       .  A
C2201     Br2208   1.934       .  S
C2202      C2203   1.415       .  A
C2203      C2204   1.409       .  A
C2203     Br2210   1.926       .  S
C2204      C2205   1.406       .  A
C2204     Br2209   1.929       .  S
C2205      C2206   1.403       .  A
C2206     Br2207   1.929       .  S
C2211      C2212   1.405       .  A
C2211      C2216   1.408       .  A
C2211     Br2218   1.939       .  S
C2212      C2213   1.403       .  A
C2213      C2214   1.415       .  A
C2213     Br2220   1.929       .  S
C2214      C2215   1.428       .  A
C2214     Br2219   1.926       .  S
C2215      C2216   1.432       .  A
C2216     Br2217   1.942       .  S
C2221      C2222   1.410       .  A
C2221      C2226   1.400       .  A
C2221     Br2228   1.935       .  S
C2222      C2223   1.413       .  A
C2223      C2224   1.411       .  A
C2223     Br2230   1.930       .  S
C2224      C2225   1.413       .  A
C2224     Br2229   1.932       .  S
C2225      C2226   1.410       .  A
C2226     Br2227   1.935       .  S
C2231      C2232   1.410       .  A
C2231      C2236   1.415       .  A
C2231     Br2238   1.931       .  S
C2232      C2233   1.405       .  A
C2233      C2234   1.389       .  A
C2233     Br2240   1.930       .  S
C2234      C2235   1.414       .  A
C2234     Br2239   1.930       .  S
C2235      C2236   1.422       .  A
C2236     Br2237   1.931       .  S
C2241      C2242   1.413       .  A
C2241      C2246   1.401       .  A
C2241     Br2248   1.936       .  S
C2242      C2243   1.408       .  A
C2243      C2244   1.413       .  A
C2243     Br2250   1.935       .  S
C2244      C2245   1.425       .  A
C2244     Br2249   1.934       .  S
C2245      C2246   1.423       .  A
C2246     Br2247   1.949       .  S
C2251      C2252   1.413       .  A
C2251      C2256   1.411       .  A
C2251     Br2258   1.931       .  S
C2252      C2253   1.410       .  A
C2253      C2254   1.408       .  A
C2253     Br2260   1.936       .  S
C2254      C2255   1.422       .  A
C2254     Br2259   1.935       .  S
C2255      C2256   1.419       .  A
C2256     Br2257   1.935       .  S
C2261      C2262   1.410       .  A
C2261      C2266   1.418       .  A
C2261     Br2268   1.922       .  S
C2262      C2263   1.399       .  A
C2263      C2264   1.395       .  A
C2263     Br2270   1.942       .  S
C2264      C2265   1.426       .  A
C2264     Br2269   1.929       .  S
C2265      C2266   1.423       .  A
C2266     Br2267   1.932       .  S
C2271      C2272   1.404       .  A
C2271      C2276   1.407       .  A
C2271     Br2278   1.932       .  S
C2272      C2273   1.405       .  A
C2273      C2274   1.406       .  A
C2273     Br2280   1.930       .  S
C2274      C2275   1.417       .  A
C2274     Br2279   1.934       .  S
C2275      C2276   1.419       .  A
C2276     Br2277   1.931       .  S
C2281      C2282   1.408       .  A
C2281      C2286   1.407       .  A
C2281     Br2288   1.931       .  S
C2282      C2283   1.411       .  A
C2283      C2284   1.416       .  A
C2283     Br2290   1.930       .  S
C2284      C2285   1.416       .  A
C2284     Br2289   1.931       .  S
C2285      C2286   1.412       .  A
C2286     Br2287   1.925       .  S
C2291      C2292   1.410       .  A
C2291      C2296   1.406       .  A
C2291     Br2298   1.929       .  S
C2292      C2293   1.409       .  A
C2293      C2294   1.409       .  A
C2293     Br2300   1.918       .  S
C2294      C2295   1.409       .  A
C2294     Br2299   1.929       .  S
C2295      C2296   1.409       .  A
C2296     Br2297   1.931       .  S
C2301      C2302   1.402       .  A
C2301      C2306   1.412       .  A
C2301     Br2308   1.932       .  S
C2302      C2303   1.399       .  A
C2303      C2304   1.406       .  A
C2303     Br2310   1.933       .  S
C2304      C2305   1.423       .  A
C2304     Br2309   1.919       .  S
C2305      C2306   1.428       .  A
C2306     Br2307   1.934       .  S
C2311      C2312   1.415       .  A
C2311      C2316   1.415       .  A
C2311     Br2318   1.933       .  S
C2312      C2313   1.414       .  A
C2313      C2314   1.412       .  A
C2313     Br2320   1.933       .  S
C2314      C2315   1.416       .  A
C2314     Br2319   1.933       .  S
C2315      C2316   1.423       .  A
C2316     Br2317   1.936       .  S
C2321      C2322   1.410       .  A
C2321      C2326   1.409       .  A
C2321     Br2328   1.931       .  S
C2322      C2323   1.412       .  A
C2323      C2324   1.411       .  A
C2323     Br2330   1.929       .  S
C2324      C2325   1.419       .  A
C2324     Br2329   1.934       .  S
C2325      C2326   1.418       .  A
C2326     Br2327   1.920       .  S
C2331      C2332   1.425       .  A
C2331      C2336   1.417       .  A
C2331     Br2338   1.935       .  S
C2332      C2333   1.423       .  A
C2333      C2334   1.412       .  A
C2333     Br2340   1.935       .  S
C2334      C2335   1.411       .  A
C2334     Br2339   1.935       .  S
C2335      C2336   1.413       .  A
C2336     Br2337   1.932       .  S
C2341      C2342   1.427       .  A
C2341      C2346   1.415       .  A
C2341     Br2348   1.932       .  S
C2342      C2343   1.415       .  A
C2343      C2344   1.407       .  A
C2343     Br2350   1.922       .  S
C2344      C2345   1.407       .  A
C2344     Br2349   1.932       .  S
C2345      C2346   1.406       .  A
C2346     Br2347   1.928       .  S
C2351      C2352   1.413       .  A
C2351      C2356   1.397       .  A
C2351     Br2358   1.943       .  S
C2352      C2353   1.407       .  A
C2353      C2354   1.406       .  A
C2353     Br2360   1.928       .  S
C2354      C2355   1.409       .  A
C2354     Br2359   1.923       .  S
C2355      C2356   1.415       .  A
C2356     Br2357   1.942       .  S
C2361      C2362   1.407       .  A
C2361      C2366   1.402       .  A
C2361     Br2368   1.927   1_545  S
C2362      C2363   1.410       .  A
C2363      C2364   1.407       .  A
C2363     Br2370   1.930       .  S
C2364      C2365   1.409       .  A
C2364     Br2369   1.921       .  S
C2365      C2366   1.407       .  A
C2366     Br2367   1.920       .  S
C2371      C2372   1.415       .  A
C2371      C2376   1.415       .  A
C2371     Br2378   1.930       .  S
C2372      C2373   1.415       .  A
C2373      C2374   1.392       .  A
C2373     Br2380   1.939       .  S
C2374      C2375   1.410       .  A
C2374     Br2379   1.943       .  S
C2375      C2376   1.418       .  A
C2376     Br2377   1.931       .  S
C2381      C2382   1.406       .  A
C2381      C2386   1.414       .  A
C2381     Br2388   1.930       .  S
C2382      C2383   1.401       .  A
C2383      C2384   1.402       .  A
C2383     Br2390   1.939       .  S
C2384      C2385   1.433       .  A
C2384     Br2389   1.947       .  S
C2385      C2386   1.427       .  A
C2386     Br2387   1.936       .  S
C2391      C2392   1.421       .  A
C2391      C2396   1.400       .  A
C2391     Br2398   1.934       .  S
C2392      C2393   1.415       .  A
C2393      C2394   1.418       .  A
C2393     Br2400   1.931       .  S
C2394      C2395   1.422       .  A
C2394     Br2399   1.934       .  S
C2395      C2396   1.408       .  A
C2396     Br2397   1.934       .  S
C2401      C2402   1.421       .  A
C2401      C2406   1.417       .  A
C2401     Br2408   1.928       .  S
C2402      C2403   1.415       .  A
C2403      C2404   1.400       .  A
C2403     Br2410   1.924   1_545  S
C2404      C2405   1.400       .  A
C2404     Br2409   1.923       .  S
C2405      C2406   1.410       .  A
C2406     Br2407   1.926       .  S
C2411      C2412   1.422       .  A
C2411      C2416   1.404       .  A
C2411     Br2418   1.926       .  S
C2412      C2413   1.422       .  A
C2413      C2414   1.410       .  A
C2413     Br2420   1.934   1_545  S
C2414      C2415   1.404       .  A
C2414     Br2419   1.931       .  S
C2415      C2416   1.400       .  A
C2416     Br2417   1.933       .  S
C2421      C2422   1.414       .  A
C2421      C2426   1.411       .  A
C2421     Br2428   1.931       .  S
C2422      C2423   1.409       .  A
C2423      C2424   1.401       .  A
C2423     Br2430   1.935       .  S
C2424      C2425   1.411       .  A
C2424     Br2429   1.935       .  S
C2425      C2426   1.412       .  A
C2426     Br2427   1.931       .  S
C2431      C2432   1.391       .  A
C2431      C2436   1.385       .  A
C2431     Br2438   1.912       .  S
C2432      C2433   1.408       .  A
C2433      C2434   1.410       .  A
C2433     Br2440   1.921       .  S
C2434      C2435   1.418       .  A
C2434     Br2439   1.925       .  S
C2435      C2436   1.406       .  A
C2436     Br2437   1.920       .  S
C2441      C2442   1.416       .  A
C2441      C2446   1.400       .  A
C2441     Br2448   1.926       .  S
C2442      C2443   1.414       .  A
C2443      C2444   1.412       .  A
C2443     Br2450   1.933       .  S
C2444      C2445   1.415       .  A
C2444     Br2449   1.933       .  S
C2445      C2446   1.410       .  A
C2446     Br2447   1.940       .  S
C2451      C2452   1.414       .  A
C2451      C2456   1.414       .  A
C2451     Br2458   1.931       .  S
C2452      C2453   1.416       .  A
C2453      C2454   1.397       .  A
C2453     Br2460   1.944       .  S
C2454      C2455   1.412       .  A
C2454     Br2459   1.926       .  S
C2455      C2456   1.414       .  A
C2456     Br2457   1.931       .  S
C2461      C2462   1.415       .  A
C2461      C2466   1.409       .  A
C2461     Br2468   1.928       .  S
C2462      C2463   1.411       .  A
C2463      C2464   1.408       .  A
C2463     Br2470   1.927   1_545  S
C2464      C2465   1.404       .  A
C2464     Br2469   1.921       .  S
C2465      C2466   1.403       .  A
C2466     Br2467   1.924       .  S
C2471      C2472   1.410       .  A
C2471      C2476   1.396       .  A
C2471     Br2478   1.931       .  S
C2472      C2473   1.410       .  A
C2473      C2474   1.414       .  A
C2473     Br2480   1.933       .  S
C2474      C2475   1.423       .  A
C2474     Br2479   1.935       .  S
C2475      C2476   1.418       .  A
C2476     Br2477   1.947       .  S
C2481      C2482   1.409       .  A
C2481      C2486   1.412       .  A
C2481     Br2488   1.929       .  S
C2482      C2483   1.407       .  A
C2483      C2484   1.409       .  A
C2483     Br2490   1.930       .  S
C2484      C2485   1.415       .  A
C2484     Br2489   1.931       .  S
C2485      C2486   1.412       .  A
C2486     Br2487   1.925       .  S
C2491      C2492   1.409       .  A
C2491      C2496   1.401       .  A
C2491     Br2498   1.936       .  S
C2492      C2493   1.410       .  A
C2493      C2494   1.408       .  A
C2493     Br2500   1.920       .  S
C2494      C2495   1.409       .  A
C2494     Br2499   1.931       .  S
C2495      C2496   1.415       .  A
C2496     Br2497   1.939       .  S
C2501      C2502   1.405       .  A
C2501      C2506   1.406       .  A
C2501     Br2508   1.928       .  S
C2502      C2503   1.408       .  A
C2503      C2504   1.411       .  A
C2503     Br2510   1.929       .  S
C2504      C2505   1.419       .  A
C2504     Br2509   1.931       .  S
C2505      C2506   1.414       .  A
C2506     Br2507   1.931       .  S
C2511      C2512   1.415       .  A
C2511      C2516   1.415       .  A
C2511     Br2518   1.931       .  S
C2512      C2513   1.415       .  A
C2513      C2514   1.405       .  A
C2513     Br2520   1.935       .  S
C2514      C2515   1.410       .  A
C2514     Br2519   1.934       .  S
C2515      C2516   1.417       .  A
C2516     Br2517   1.929       .  S
C2521      C2522   1.416       .  A
C2521      C2526   1.412       .  A
C2521     Br2528   1.929       .  S
C2522      C2523   1.408       .  A
C2523      C2524   1.410       .  A
C2523     Br2530   1.925       .  S
C2524      C2525   1.412       .  A
C2524     Br2529   1.927       .  S
C2525      C2526   1.408       .  A
C2526     Br2527   1.931       .  S
C2531      C2532   1.406       .  A
C2531      C2536   1.399       .  A
C2531     Br2538   1.897       .  S
C2532      C2533   1.410       .  A
C2533      C2534   1.400       .  A
C2533     Br2540   1.918   1_545  S
C2534      C2535   1.407       .  A
C2534     Br2539   1.925       .  S
C2535      C2536   1.403       .  A
C2536     Br2537   1.920       .  S
C2541      C2542   1.422       .  A
C2541      C2546   1.414       .  A
C2541     Br2548   1.934       .  S
C2542      C2543   1.420       .  A
C2543      C2544   1.399       .  A
C2543     Br2550   1.943       .  S
C2544      C2545   1.410       .  A
C2544     Br2549   1.935       .  S
C2545      C2546   1.412       .  A
C2546     Br2547   1.930       .  S
C2551      C2552   1.408       .  A
C2551      C2556   1.411       .  A
C2551     Br2558   1.928       .  S
C2552      C2553   1.418       .  A
C2553      C2554   1.400       .  A
C2553     Br2560   1.940       .  S
C2554      C2555   1.406       .  A
C2554     Br2559   1.935       .  S
C2555      C2556   1.411       .  A
C2556     Br2557   1.919       .  S
C2561      C2562   1.411       .  A
C2561      C2566   1.410       .  A
C2561     Br2568   1.930       .  S
C2562      C2563   1.409       .  A
C2563      C2564   1.393       .  A
C2563     Br2570   1.919       .  S
C2564      C2565   1.406       .  A
C2564     Br2569   1.933       .  S
C2565      C2566   1.413       .  A
C2566     Br2567   1.932       .  S
C2571      C2572   1.414       .  A
C2571      C2576   1.402       .  A
C2571     Br2578   1.896       .  S
C2572      C2573   1.413       .  A
C2573      C2574   1.426       .  A
C2573     Br2580   1.923       .  S
C2574      C2575   1.418       .  A
C2574     Br2579   1.926       .  S
C2575      C2576   1.396       .  A
C2576     Br2577   1.928       .  S
C2581      C2582   1.406       .  A
C2581      C2586   1.396       .  A
C2581     Br2588   1.921       .  S
C2582      C2583   1.413       .  A
C2583      C2584   1.413       .  A
C2583     Br2590   1.929       .  S
C2584      C2585   1.413       .  A
C2584     Br2589   1.930       .  S
C2585      C2586   1.413       .  A
C2586     Br2587   1.933       .  S
C2591      C2592   1.409       .  A
C2591      C2596   1.406       .  A
C2591     Br2598   1.932       .  S
C2592      C2593   1.408       .  A
C2593      C2594   1.406       .  A
C2593     Br2600   1.912       .  S
C2594      C2595   1.406       .  A
C2594     Br2599   1.930       .  S
C2595      C2596   1.411       .  A
C2596     Br2597   1.931       .  S
C2601      C2602   1.426       .  A
C2601      C2606   1.403       .  A
C2601     Br2608   1.943       .  S
C2602      C2603   1.427       .  A
C2603      C2604   1.417       .  A
C2603     Br2610   1.926       .  S
C2604      C2605   1.405       .  A
C2604     Br2609   1.931       .  S
C2605      C2606   1.408       .  A
C2606     Br2607   1.940       .  S
C2611      C2612   1.409       .  A
C2611      C2616   1.404       .  A
C2611     Br2618   1.922       .  S
C2612      C2613   1.411       .  A
C2613      C2614   1.403       .  A
C2613     Br2620   1.927       .  S
C2614      C2615   1.404       .  A
C2614     Br2619   1.910       .  S
C2615      C2616   1.406       .  A
C2616     Br2617   1.923       .  S
C2621      C2622   1.409       .  A
C2621      C2626   1.409       .  A
C2621     Br2628   1.930       .  S
C2622      C2623   1.408       .  A
C2623      C2624   1.406       .  A
C2623     Br2630   1.929       .  S
C2624      C2625   1.409       .  A
C2624     Br2629   1.928       .  S
C2625      C2626   1.409       .  A
C2626     Br2627   1.922       .  S
C2631      C2632   1.407       .  A
C2631      C2636   1.407       .  A
C2631     Br2638   1.927       .  S
C2632      C2633   1.408       .  A
C2633      C2634   1.397       .  A
C2633     Br2640   1.930       .  S
C2634      C2635   1.405       .  A
C2634     Br2639   1.929       .  S
C2635      C2636   1.411       .  A
C2636     Br2637   1.927       .  S
C2641      C2642   1.418       .  A
C2641      C2646   1.418       .  A
C2641     Br2648   1.933       .  S
C2642      C2643   1.418       .  A
C2643      C2644   1.406       .  A
C2643     Br2650   1.934       .  S
C2644      C2645   1.417       .  A
C2644     Br2649   1.940       .  S
C2645      C2646   1.418       .  A
C2646     Br2647   1.933       .  S
C2651      C2652   1.404       .  A
C2651      C2656   1.389       .  A
C2651     Br2658   1.878       .  S
C2652      C2653   1.413       .  A
C2653      C2654   1.429       .  A
C2653     Br2660   1.922       .  S
C2654      C2655   1.421       .  A
C2654     Br2659   1.925       .  S
C2655      C2656   1.390       .  A
C2656     Br2657   1.931       .  S
C2661      C2662   1.421       .  A
C2661      C2666   1.413       .  A
C2661     Br2668   1.933       .  S
C2662      C2663   1.430       .  A
C2663      C2664   1.395       .  A
C2663     Br2670   1.943       .  S
C2664      C2665   1.401       .  A
C2664     Br2669   1.944       .  S
C2665      C2666   1.411       .  A
C2666     Br2667   1.932       .  S
C2671      C2672   1.425       .  A
C2671      C2676   1.412       .  A
C2671     Br2678   1.941       .  S
C2672      C2673   1.421       .  A
C2673      C2674   1.420       .  A
C2673     Br2680   1.932       .  S
C2674      C2675   1.416       .  A
C2674     Br2679   1.933       .  S
C2675      C2676   1.416       .  A
C2676     Br2677   1.941       .  S
C2681      C2682   1.390       .  A
C2681      C2686   1.374       .  A
C2681     Br2688   1.907       .  S
C2682      C2683   1.419       .  A
C2683      C2684   1.417       .  A
C2683     Br2690   1.927       .  S
C2684      C2685   1.412       .  A
C2684     Br2689   1.926       .  S
C2685      C2686   1.393       .  A
C2686     Br2687   1.915       .  S
C2691      C2692   1.402       .  A
C2691      C2696   1.405       .  A
C2691     Br2698   1.937       .  S
C2692      C2693   1.407       .  A
C2693      C2694   1.411       .  A
C2693     Br2700   1.930       .  S
C2694      C2695   1.420       .  A
C2694     Br2699   1.922       .  S
C2695      C2696   1.431       .  A
C2696     Br2697   1.942       .  S
C2701      C2702   1.408       .  A
C2701      C2706   1.408       .  A
C2701     Br2708   1.928       .  S
C2702      C2703   1.409       .  A
C2703      C2704   1.404       .  A
C2703     Br2710   1.931       .  S
C2704      C2705   1.409       .  A
C2704     Br2709   1.930       .  S
C2705      C2706   1.407       .  A
C2706     Br2707   1.918       .  S
C2711      C2712   1.404       .  A
C2711      C2716   1.416       .  A
C2711     Br2718   1.927       .  S
C2712      C2713   1.390       .  A
C2713      C2714   1.393       .  A
C2713     Br2720   1.907       .  S
C2714      C2715   1.418       .  A
C2714     Br2719   1.923       .  S
C2715      C2716   1.423       .  A
C2716     Br2717   1.924       .  S
C2721      C2722   1.418       .  A
C2721      C2726   1.398       .  A
C2721     Br2728   1.947       .  S
C2722      C2723   1.421       .  A
C2723      C2724   1.417       .  A
C2723     Br2730   1.932       .  S
C2724      C2725   1.412       .  A
C2724     Br2729   1.932       .  S
C2725      C2726   1.412       .  A
C2726     Br2727   1.930       .  S
C2731      C2732   1.413       .  A
C2731      C2736   1.414       .  A
C2731     Br2738   1.928       .  S
C2732      C2733   1.404       .  A
C2733      C2734   1.398       .  A
C2733     Br2740   1.936       .  S
C2734      C2735   1.410       .  A
C2734     Br2739   1.918   1_554  S
C2735      C2736   1.412       .  A
C2736     Br2737   1.929       .  S
C2741      C2742   1.410       .  A
C2741      C2746   1.416       .  A
C2741     Br2748   1.923       .  S
C2742      C2743   1.389       .  A
C2743      C2744   1.392       .  A
C2743     Br2750   1.918       .  S
C2744      C2745   1.399       .  A
C2744     Br2749   1.922       .  S
C2745      C2746   1.414       .  A
C2746     Br2747   1.923       .  S
C2751      C2752   1.401       .  A
C2751      C2756   1.379       .  A
C2751     Br2758   1.893       .  S
C2752      C2753   1.421       .  A
C2753      C2754   1.422       .  A
C2753     Br2760   1.928       .  S
C2754      C2755   1.416       .  A
C2754     Br2759   1.925       .  S
C2755      C2756   1.402       .  A
C2756     Br2757   1.933       .  S
C2761      C2762   1.413       .  A
C2761      C2766   1.404       .  A
C2761     Br2768   1.924       .  S
C2762      C2763   1.413       .  A
C2763      C2764   1.405       .  A
C2763     Br2770   1.931       .  S
C2764      C2765   1.406       .  A
C2764     Br2769   1.920   1_554  S
C2765      C2766   1.410       .  A
C2766     Br2767   1.918       .  S
C2771      C2772   1.408       .  A
C2771      C2776   1.400       .  A
C2771     Br2778   1.937       .  S
C2772      C2773   1.411       .  A
C2773      C2774   1.411       .  A
C2773     Br2780   1.930       .  S
C2774      C2775   1.414       .  A
C2774     Br2779   1.931       .  S
C2775      C2776   1.416       .  A
C2776     Br2777   1.938       .  S
C2781      C2782   1.407       .  A
C2781      C2786   1.401       .  A
C2781     Br2788   1.925       .  S
C2782      C2783   1.408       .  A
C2783      C2784   1.406       .  A
C2783     Br2790   1.928       .  S
C2784      C2785   1.409       .  A
C2784     Br2789   1.929       .  S
C2785      C2786   1.403       .  A
C2786     Br2787   1.922       .  S
C2791      C2792   1.411       .  A
C2791      C2796   1.408       .  A
C2791     Br2798   1.928       .  S
C2792      C2793   1.409       .  A
C2793      C2794   1.410       .  A
C2793     Br2800   1.916       .  S
C2794      C2795   1.409       .  A
C2794     Br2799   1.929       .  S
C2795      C2796   1.409       .  A
C2796     Br2797   1.930   1_554  S
C2801      C2802   1.411       .  A
C2801      C2806   1.419       .  A
C2801     Br2808   1.931       .  S
C2802      C2803   1.404       .  A
C2803      C2804   1.398       .  A
C2803     Br2810   1.939       .  S
C2804      C2805   1.423       .  A
C2804     Br2809   1.938       .  S
C2805      C2806   1.426       .  A
C2806     Br2807   1.933       .  S
C2811      C2812   1.408       .  A
C2811      C2816   1.409       .  A
C2811     Br2818   1.924       .  S
C2812      C2813   1.409       .  A
C2813      C2814   1.404       .  A
C2813     Br2820   1.931       .  S
C2814      C2815   1.408       .  A
C2814     Br2819   1.932       .  S
C2815      C2816   1.412       .  A
C2816     Br2817   1.929       .  S
C2821      C2822   1.411       .  A
C2821      C2826   1.401       .  A
C2821     Br2828   1.926       .  S
C2822      C2823   1.413       .  A
C2823      C2824   1.415       .  A
C2823     Br2830   1.930       .  S
C2824      C2825   1.415       .  A
C2824     Br2829   1.930       .  S
C2825      C2826   1.412       .  A
C2826     Br2827   1.930       .  S
C2831      C2832   1.402       .  A
C2831      C2836   1.410       .  A
C2831     Br2838   1.932       .  S
C2832      C2833   1.396       .  A
C2833      C2834   1.400       .  A
C2833     Br2840   1.933       .  S
C2834      C2835   1.428       .  A
C2834     Br2839   1.934       .  S
C2835      C2836   1.426       .  A
C2836     Br2837   1.935       .  S
C2841      C2842   1.415       .  A
C2841      C2846   1.410       .  A
C2841     Br2848   1.932       .  S
C2842      C2843   1.417       .  A
C2843      C2844   1.415       .  A
C2843     Br2850   1.931       .  S
C2844      C2845   1.413       .  A
C2844     Br2849   1.931       .  S
C2845      C2846   1.415       .  A
C2846     Br2847   1.931       .  S
C2851      C2852   1.418       .  A
C2851      C2856   1.422       .  A
C2851     Br2858   1.935       .  S
C2852      C2853   1.420       .  A
C2853      C2854   1.417       .  A
C2853     Br2860   1.936       .  S
C2854      C2855   1.417       .  A
C2854     Br2859   1.933       .  S
C2855      C2856   1.424       .  A
C2856     Br2857   1.936       .  S
C2861      C2862   1.408       .  A
C2861      C2866   1.410       .  A
C2861     Br2868   1.928       .  S
C2862      C2863   1.418       .  A
C2863      C2864   1.398       .  A
C2863     Br2870   1.924       .  S
C2864      C2865   1.398       .  A
C2864     Br2869   1.939       .  S
C2865      C2866   1.410       .  A
C2866     Br2867   1.929       .  S
C2871      C2872   1.424       .  A
C2871      C2876   1.427       .  A
C2871     Br2878   1.930       .  S
C2872      C2873   1.412       .  A
C2873      C2874   1.400       .  A
C2873     Br2880   1.932       .  S
C2874      C2875   1.414       .  A
C2874     Br2879   1.918       .  S
C2875      C2876   1.416       .  A
C2876     Br2877   1.928       .  S
C2881      C2882   1.415       .  A
C2881      C2886   1.405       .  A
C2881     Br2888   1.905       .  S
C2882      C2883   1.413       .  A
C2883      C2884   1.424       .  A
C2883     Br2890   1.925       .  S
C2884      C2885   1.417       .  A
C2884     Br2889   1.928       .  S
C2885      C2886   1.404       .  A
C2886     Br2887   1.938       .  S
C2891      C2892   1.410       .  A
C2891      C2896   1.407       .  A
C2891     Br2898   1.938       .  S
C2892      C2893   1.414       .  A
C2893      C2894   1.416       .  A
C2893     Br2900   1.933       .  S
C2894      C2895   1.420       .  A
C2894     Br2899   1.932       .  S
C2895      C2896   1.427       .  A
C2896     Br2897   1.941       .  S
C2901      C2902   1.421       .  A
C2901      C2906   1.413       .  A
C2901     Br2908   1.938       .  S
C2902      C2903   1.420       .  A
C2903      C2904   1.419       .  A
C2903     Br2910   1.933       .  S
C2904      C2905   1.421       .  A
C2904     Br2909   1.935       .  S
C2905      C2906   1.418       .  A
C2906     Br2907   1.937       .  S
C2911      C2912   1.404       .  A
C2911      C2916   1.405       .  A
C2911     Br2918   1.932       .  S
C2912      C2913   1.414       .  A
C2913      C2914   1.421       .  A
C2913     Br2920   1.930       .  S
C2914      C2915   1.422       .  A
C2914     Br2919   1.930       .  S
C2915      C2916   1.425       .  A
C2916     Br2917   1.931       .  S
C2921      C2922   1.409       .  A
C2921      C2926   1.403       .  A
C2921     Br2928   1.934       .  S
C2922      C2923   1.414       .  A
C2923      C2924   1.418       .  A
C2923     Br2930   1.931       .  S
C2924      C2925   1.421       .  A
C2924     Br2929   1.931       .  S
C2925      C2926   1.425       .  A
C2926     Br2927   1.943       .  S
C2931      C2932   1.417       .  A
C2931      C2936   1.416       .  A
C2931     Br2938   1.932       .  S
C2932      C2933   1.414       .  A
C2933      C2934   1.409       .  A
C2933     Br2940   1.938       .  S
C2934      C2935   1.420       .  A
C2934     Br2939   1.938       .  S
C2935      C2936   1.418       .  A
C2936     Br2937   1.934       .  S
C2941      C2942   1.420       .  A
C2941      C2946   1.410       .  A
C2941     Br2948   1.937       .  S
C2942      C2943   1.420       .  A
C2943      C2944   1.419       .  A
C2943     Br2950   1.932       .  S
C2944      C2945   1.415       .  A
C2944     Br2949   1.931       .  S
C2945      C2946   1.418       .  A
C2946     Br2947   1.940       .  S
C2951      C2952   1.421       .  A
C2951      C2956   1.421       .  A
C2951     Br2958   1.932       .  S
C2952      C2953   1.407       .  A
C2953      C2954   1.400       .  A
C2953     Br2960   1.937       .  S
C2954      C2955   1.426       .  A
C2954     Br2959   1.937       .  S
C2955      C2956   1.417       .  A
C2956     Br2957   1.930       .  S
C2961      C2962   1.413       .  A
C2961      C2966   1.396       .  A
C2961     Br2968   1.921       .  S
C2962      C2963   1.412       .  A
C2963      C2964   1.420       .  A
C2963     Br2970   1.925       .  S
C2964      C2965   1.414       .  A
C2964     Br2969   1.927       .  S
C2965      C2966   1.397       .  A
C2966     Br2967   1.920       .  S
C2971      C2972   1.414       .  A
C2971      C2976   1.401       .  A
C2971     Br2978   1.917       .  S
C2972      C2973   1.412       .  A
C2973      C2974   1.419       .  A
C2973     Br2980   1.925       .  S
C2974      C2975   1.414       .  A
C2974     Br2979   1.927       .  S
C2975      C2976   1.400       .  A
C2976     Br2977   1.929       .  S
C2981      C2982   1.398       .  A
C2981      C2986   1.395       .  A
C2981     Br2988   1.925       .  S
C2982      C2983   1.413       .  A
C2983      C2984   1.418       .  A
C2983     Br2990   1.928       .  S
C2984      C2985   1.414       .  A
C2984     Br2989   1.927       .  S
C2985      C2986   1.413       .  A
C2986     Br2987   1.918       .  S
C2991      C2992   1.411       .  A
C2991      C2996   1.419       .  A
C2991     Br2998   1.929       .  S
C2992      C2993   1.400       .  A
C2993      C2994   1.400       .  A
C2993     Br3000   1.927       .  S
C2994      C2995   1.424       .  A
C2994     Br2999   1.924       .  S
C2995      C2996   1.421       .  A
C2996     Br2997   1.931       .  S
C3001      C3002   1.411       .  A
C3001      C3006   1.411       .  A
C3001     Br3008   1.932       .  S
C3002      C3003   1.408       .  A
C3003      C3004   1.403       .  A
C3003     Br3010   1.937       .  S
C3004      C3005   1.425       .  A
C3004     Br3009   1.942       .  S
C3005      C3006   1.418       .  A
C3006     Br3007   1.933       .  S
C3011      C3012   1.402       .  A
C3011      C3016   1.405       .  A
C3011     Br3018   1.934       .  S
C3012      C3013   1.413       .  A
C3013      C3014   1.417       .  A
C3013     Br3020   1.925       .  S
C3014      C3015   1.411       .  A
C3014     Br3019   1.926       .  S
C3015      C3016   1.416       .  A
C3016     Br3017   1.917       .  S
C3021      C3022   1.421       .  A
C3021      C3026   1.411       .  A
C3021     Br3028   1.931       .  S
C3022      C3023   1.418       .  A
C3023      C3024   1.415       .  A
C3023     Br3030   1.932       .  S
C3024      C3025   1.417       .  A
C3024     Br3029   1.934       .  S
C3025      C3026   1.412       .  A
C3026     Br3027   1.931       .  S
C3031      C3032   1.412       .  A
C3031      C3036   1.409       .  A
C3031     Br3038   1.931       .  S
C3032      C3033   1.417       .  A
C3033      C3034   1.408       .  A
C3033     Br3040   1.934       .  S
C3034      C3035   1.413       .  A
C3034     Br3039   1.935       .  S
C3035      C3036   1.411       .  A
C3036     Br3037   1.932       .  S
C3041      C3042   1.423       .  A
C3041      C3046   1.417       .  A
C3041     Br3048   1.932       .  S
C3042      C3043   1.426       .  A
C3043      C3044   1.412       .  A
C3043     Br3050   1.937       .  S
C3044      C3045   1.410       .  A
C3044     Br3049   1.936       .  S
C3045      C3046   1.413       .  A
C3046     Br3047   1.929       .  S
C3051      C3052   1.416       .  A
C3051      C3056   1.414       .  A
C3051     Br3058   1.938       .  S
C3052      C3053   1.416       .  A
C3053      C3054   1.423       .  A
C3053     Br3060   1.932       .  S
C3054      C3055   1.424       .  A
C3054     Br3059   1.933       .  S
C3055      C3056   1.423       .  A
C3056     Br3057   1.937       .  S
C3061      C3062   1.399       .  A
C3061      C3066   1.400       .  A
C3061     Br3068   1.929       .  S
C3062      C3063   1.415       .  A
C3063      C3064   1.419       .  A
C3063     Br3070   1.926       .  S
C3064      C3065   1.412       .  A
C3064     Br3069   1.925       .  S
C3065      C3066   1.415       .  A
C3066     Br3067   1.923       .  S
C3071      C3072   1.397       .  A
C3071      C3076   1.394       .  A
C3071     Br3078   1.916       .  S
C3072      C3073   1.414       .  A
C3073      C3074   1.420       .  A
C3073     Br3080   1.924       .  S
C3074      C3075   1.414       .  A
C3074     Br3079   1.926       .  S
C3075      C3076   1.409       .  A
C3076     Br3077   1.913       .  S
C3081      C3082   1.420       .  A
C3081      C3086   1.417       .  A
C3081     Br3088   1.930       .  S
C3082      C3083   1.422       .  A
C3083      C3084   1.398       .  A
C3083     Br3090   1.933       .  S
C3084      C3085   1.403       .  A
C3084     Br3089   1.932       .  S
C3085      C3086   1.412       .  A
C3086     Br3087   1.930       .  S
C3091      C3092   1.415       .  A
C3091      C3096   1.417       .  A
C3091     Br3098   1.933       .  S
C3092      C3093   1.413       .  A
C3093      C3094   1.406       .  A
C3093     Br3100   1.935       .  S
C3094      C3095   1.420       .  A
C3094     Br3099   1.941       .  S
C3095      C3096   1.420       .  A
C3096     Br3097   1.932       .  S
C3101      C3102   1.420       .  A
C3101      C3106   1.415       .  A
C3101     Br3108   1.937       .  S
C3102      C3103   1.416       .  A
C3103      C3104   1.413       .  A
C3103     Br3110   1.932       .  S
C3104      C3105   1.415       .  A
C3104     Br3109   1.934       .  S
C3105      C3106   1.417       .  A
C3106     Br3107   1.933       .  S
C3111      C3112   1.425       .  A
C3111      C3116   1.416       .  A
C3111     Br3118   1.937       .  S
C3112      C3113   1.427       .  A
C3113      C3114   1.410       .  A
C3113     Br3120   1.939       .  S
C3114      C3115   1.409       .  A
C3114     Br3119   1.938       .  S
C3115      C3116   1.414       .  A
C3116     Br3117   1.933       .  S
C3121      C3122   1.413       .  A
C3121      C3126   1.395       .  A
C3121     Br3128   1.916       .  S
C3122      C3123   1.411       .  A
C3123      C3124   1.418       .  A
C3123     Br3130   1.925       .  S
C3124      C3125   1.414       .  A
C3124     Br3129   1.926       .  S
C3125      C3126   1.396       .  A
C3126     Br3127   1.921       .  S
C3131      C3132   1.396       .  A
C3131      C3136   1.391       .  A
C3131     Br3138   1.933       .  S
C3132      C3133   1.416       .  A
C3133      C3134   1.422       .  A
C3133     Br3140   1.926       .  S
C3134      C3135   1.412       .  A
C3134     Br3139   1.924       .  S
C3135      C3136   1.406       .  A
C3136     Br3137   1.895       .  S
C3141      C3142   1.417       .  A
C3141      C3146   1.425       .  A
C3141     Br3148   1.928       .  S
C3142      C3143   1.401       .  A
C3143      C3144   1.407       .  A
C3143     Br3150   1.935       .  S
C3144      C3145   1.419       .  A
C3144     Br3149   1.911       .  S
C3145      C3146   1.414       .  A
C3146     Br3147   1.926       .  S
C3151      C3152   1.406       .  A
C3151      C3156   1.387       .  A
C3151     Br3158   1.929       .  S
C3152      C3153   1.423       .  A
C3153      C3154   1.422       .  A
C3153     Br3160   1.930       .  S
C3154      C3155   1.414       .  A
C3154     Br3159   1.927       .  S
C3155      C3156   1.406       .  A
C3156     Br3157   1.914       .  S
C3161      C3162   1.387       .  A
C3161      C3166   1.376       .  A
C3161     Br3168   1.909       .  S
C3162      C3163   1.419       .  A
C3163      C3164   1.425       .  A
C3163     Br3170   1.923       .  S
C3164      C3165   1.410       .  A
C3164     Br3169   1.921       .  S
C3165      C3166   1.391       .  A
C3166     Br3167   1.885       .  S
C3171      C3172   1.418       .  A
C3171      C3176   1.412       .  A
C3171     Br3178   1.932       .  S
C3172      C3173   1.418       .  A
C3173      C3174   1.409       .  A
C3173     Br3180   1.932       .  S
C3174      C3175   1.413       .  A
C3174     Br3179   1.932       .  S
C3175      C3176   1.411       .  A
C3176     Br3177   1.932       .  S
C3181      C3182   1.426       .  A
C3181      C3186   1.416       .  A
C3181     Br3188   1.933       .  S
C3182      C3183   1.419       .  A
C3183      C3184   1.413       .  A
C3183     Br3190   1.933       .  S
C3184      C3185   1.413       .  A
C3184     Br3189   1.934       .  S
C3185      C3186   1.408       .  A
C3186     Br3187   1.930       .  S
C3191      C3192   1.424       .  A
C3191      C3196   1.409       .  A
C3191     Br3198   1.936       .  S
C3192      C3193   1.421       .  A
C3193      C3194   1.416       .  A
C3193     Br3200   1.932       .  S
C3194      C3195   1.413       .  A
C3194     Br3199   1.931       .  S
C3195      C3196   1.408       .  A
C3196     Br3197   1.936       .  S
C3201      C3202   1.420       .  A
C3201      C3206   1.414       .  A
C3201     Br3208   1.934       .  S
C3202      C3203   1.419       .  A
C3203      C3204   1.408       .  A
C3203     Br3210   1.935       .  S
C3204      C3205   1.410       .  A
C3204     Br3209   1.936       .  S
C3205      C3206   1.413       .  A
C3206     Br3207   1.933       .  S
C3211      C3212   1.430       .  A
C3211      C3216   1.411       .  A
C3211     Br3218   1.941       .  S
C3212      C3213   1.430       .  A
C3213      C3214   1.411       .  A
C3213     Br3220   1.938       .  S
C3214      C3215   1.406       .  A
C3214     Br3219   1.937       .  S
C3215      C3216   1.409       .  A
C3216     Br3217   1.933       .  S
C3221      C3222   1.399       .  A
C3221      C3226   1.399       .  A
C3221     Br3228   1.941       .  S
C3222      C3223   1.415       .  A
C3223      C3224   1.417       .  A
C3223     Br3230   1.929       .  S
C3224      C3225   1.410       .  A
C3224     Br3229   1.926       .  S
C3225      C3226   1.417       .  A
C3226     Br3227   1.908       .  S
C3231      C3232   1.419       .  A
C3231      C3236   1.416       .  A
C3231     Br3238   1.931       .  S
C3232      C3233   1.422       .  A
C3233      C3234   1.409       .  A
C3233     Br3240   1.935       .  S
C3234      C3235   1.410       .  A
C3234     Br3239   1.935       .  S
C3235      C3236   1.416       .  A
C3236     Br3237   1.931       .  S
C3241      C3242   1.409       .  A
C3241      C3246   1.416       .  A
C3241     Br3248   1.927       .  S
C3242      C3243   1.419       .  A
C3243      C3244   1.401       .  A
C3243     Br3250   1.915       .  S
C3244      C3245   1.400       .  A
C3244     Br3249   1.941       .  S
C3245      C3246   1.416       .  A
C3246     Br3247   1.930       .  S
C3251      C3252   1.416       .  A
C3251      C3256   1.420       .  A
C3251     Br3258   1.933       .  S
C3252      C3253   1.415       .  A
C3253      C3254   1.407       .  A
C3253     Br3260   1.930       .  S
C3254      C3255   1.420       .  A
C3254     Br3259   1.942       .  S
C3255      C3256   1.424       .  A
C3256     Br3257   1.934       .  S
C3261      C3262   1.416       .  A
C3261      C3266   1.415       .  A
C3261     Br3268   1.930       .  S
C3262      C3263   1.398       .  A
C3263      C3264   1.397       .  A
C3263     Br3270   1.941       .  S
C3264      C3265   1.413       .  A
C3264     Br3269   1.905       .  S
C3265      C3266   1.408       .  A
C3266     Br3267   1.926       .  S
C3271      C3272   1.419       .  A
C3271      C3276   1.412       .  A
C3271     Br3278   1.931       .  S
C3272      C3273   1.416       .  A
C3273      C3274   1.414       .  A
C3273     Br3280   1.933       .  S
C3274      C3275   1.417       .  A
C3274     Br3279   1.933       .  S
C3275      C3276   1.411       .  A
C3276     Br3277   1.926       .  S
C3281      C3282   1.419       .  A
C3281      C3286   1.418       .  A
C3281     Br3288   1.933       .  S
C3282      C3283   1.424       .  A
C3283      C3284   1.413       .  A
C3283     Br3290   1.935       .  S
C3284      C3285   1.411       .  A
C3284     Br3289   1.935       .  S
C3285      C3286   1.419       .  A
C3286     Br3287   1.931       .  S
C3291      C3292   1.415       .  A
C3291      C3296   1.412       .  A
C3291     Br3298   1.933       .  S
C3292      C3293   1.422       .  A
C3293      C3294   1.414       .  A
C3293     Br3300   1.941       .  S
C3294      C3295   1.417       .  A
C3294     Br3299   1.936       .  S
C3295      C3296   1.416       .  A
C3296     Br3297   1.934       .  S
C3301      C3302   1.413       .  A
C3301      C3306   1.407       .  A
C3301     Br3308   1.931       .  S
C3302      C3303   1.415       .  A
C3303      C3304   1.414       .  A
C3303     Br3310   1.930       .  S
C3304      C3305   1.414       .  A
C3304     Br3309   1.930       .  S
C3305      C3306   1.412       .  A
C3306     Br3307   1.925       .  S
C3311      C3312   1.417       .  A
C3311      C3316   1.403       .  A
C3311     Br3318   1.936       .  S
C3312      C3313   1.417       .  A
C3313      C3314   1.415       .  A
C3313     Br3320   1.934       .  S
C3314      C3315   1.419       .  A
C3314     Br3319   1.933       .  S
C3315      C3316   1.414       .  A
C3316     Br3317   1.939       .  S
C3321      C3322   1.401       .  A
C3321      C3326   1.402       .  A
C3321     Br3328   1.939       .  S
C3322      C3323   1.414       .  A
C3323      C3324   1.416       .  A
C3323     Br3330   1.929       .  S
C3324      C3325   1.410       .  A
C3324     Br3329   1.927       .  S
C3325      C3326   1.418       .  A
C3326     Br3327   1.917       .  S
C3331      C3332   1.415       .  A
C3331      C3336   1.409       .  A
C3331     Br3338   1.933       .  S
C3332      C3333   1.422       .  A
C3333      C3334   1.413       .  A
C3333     Br3340   1.937       .  S
C3334      C3335   1.415       .  A
C3334     Br3339   1.936       .  S
C3335      C3336   1.415       .  A
C3336     Br3337   1.935       .  S
C3341      C3342   1.417       .  A
C3341      C3346   1.417       .  A
C3341     Br3348   1.933       .  S
C3342      C3343   1.415       .  A
C3343      C3344   1.407       .  A
C3343     Br3350   1.935       .  S
C3344      C3345   1.418       .  A
C3344     Br3349   1.940       .  S
C3345      C3346   1.419       .  A
C3346     Br3347   1.931       .  S
C3351      C3352   1.416       .  A
C3351      C3356   1.423       .  A
C3351     Br3358   1.928       .  S
C3352      C3353   1.394       .  A
C3353      C3354   1.394       .  A
C3353     Br3360   1.932       .  S
C3354      C3355   1.415       .  A
C3354     Br3359   1.907       .  S
C3355      C3356   1.415       .  A
C3356     Br3357   1.926       .  S
C3361      C3362   1.415       .  A
C3361      C3366   1.400       .  A
C3361     Br3368   1.924       .  S
C3362      C3363   1.412       .  A
C3363      C3364   1.419       .  A
C3363     Br3370   1.926       .  S
C3364      C3365   1.414       .  A
C3364     Br3369   1.927       .  S
C3365      C3366   1.401       .  A
C3366     Br3367   1.923       .  S
C3371      C3372   1.413       .  A
C3371      C3376   1.409       .  A
C3371     Br3378   1.934       .  S
C3372      C3373   1.414       .  A
C3373      C3374   1.411       .  A
C3373     Br3380   1.932       .  S
C3374      C3375   1.414       .  A
C3374     Br3379   1.932       .  S
C3375      C3376   1.415       .  A
C3376     Br3377   1.928       .  S
C3381      C3382   1.423       .  A
C3381      C3386   1.407       .  A
C3381     Br3388   1.941       .  S
C3382      C3383   1.431       .  A
C3383      C3384   1.418       .  A
C3383     Br3390   1.940       .  S
C3384      C3385   1.415       .  A
C3384     Br3389   1.937       .  S
C3385      C3386   1.415       .  A
C3386     Br3387   1.934       .  S
C3391      C3392   1.409       .  A
C3391      C3396   1.403       .  A
C3391     Br3398   1.937       .  S
C3392      C3393   1.415       .  A
C3393      C3394   1.409       .  A
C3393     Br3400   1.933       .  S
C3394      C3395   1.415       .  A
C3394     Br3399   1.934       .  S
C3395      C3396   1.418       .  A
C3396     Br3397   1.936       .  S
C3401      C3402   1.416       .  A
C3401      C3406   1.417       .  A
C3401     Br3408   1.930       .  S
C3402      C3403   1.402       .  A
C3403      C3404   1.403       .  A
C3403     Br3410   1.939       .  S
C3404      C3405   1.417       .  A
C3404     Br3409   1.914       .  S
C3405      C3406   1.410       .  A
C3406     Br3407   1.927       .  S
C3411      C3412   1.415       .  A
C3411      C3416   1.414       .  A
C3411     Br3418   1.931       .  S
C3412      C3413   1.416       .  A
C3413      C3414   1.409       .  A
C3413     Br3420   1.933       .  S
C3414      C3415   1.416       .  A
C3414     Br3419   1.934       .  S
C3415      C3416   1.414       .  A
C3416     Br3417   1.932       .  S
C3421      C3422   1.419       .  A
C3421      C3426   1.418       .  A
C3421     Br3428   1.931       .  S
C3422      C3423   1.419       .  A
C3423      C3424   1.409       .  A
C3423     Br3430   1.939       .  S
C3424      C3425   1.416       .  A
C3424     Br3429   1.939       .  S
C3425      C3426   1.414       .  A
C3426     Br3427   1.929       .  S
C3431      C3432   1.413       .  A
C3431      C3436   1.417       .  A
C3431     Br3438   1.928       .  S
C3432      C3433   1.400       .  A
C3433      C3434   1.404       .  A
C3433     Br3440   1.937       .  S
C3434      C3435   1.419       .  A
C3434     Br3439   1.918       .  S
C3435      C3436   1.411       .  A
C3436     Br3437   1.926       .  S
C3441      C3442   1.419       .  A
C3441      C3446   1.416       .  A
C3441     Br3448   1.932       .  S
C3442      C3443   1.419       .  A
C3443      C3444   1.415       .  A
C3443     Br3450   1.933       .  S
C3444      C3445   1.416       .  A
C3444     Br3449   1.931       .  S
C3445      C3446   1.413       .  A
C3446     Br3447   1.931       .  S
C3451      C3452   1.401       .  A
C3451      C3456   1.405       .  A
C3451     Br3458   1.940       .  S
C3452      C3453   1.417       .  A
C3453      C3454   1.417       .  A
C3453     Br3460   1.922       .  S
C3454      C3455   1.408       .  A
C3454     Br3459   1.927       .  S
C3455      C3456   1.420       .  A
C3456     Br3457   1.913       .  S
C3461      C3462   1.417       .  A
C3461      C3466   1.414       .  A
C3461     Br3468   1.934       .  S
C3462      C3463   1.422       .  A
C3463      C3464   1.411       .  A
C3463     Br3470   1.939       .  S
C3464      C3465   1.413       .  A
C3464     Br3469   1.938       .  S
C3465      C3466   1.418       .  A
C3466     Br3467   1.933       .  S
C3471      C3472   1.416       .  A
C3471      C3476   1.411       .  A
C3471     Br3478   1.936       .  S
C3472      C3473   1.423       .  A
C3473      C3474   1.414       .  A
C3473     Br3480   1.936       .  S
C3474      C3475   1.414       .  A
C3474     Br3479   1.935       .  S
C3475      C3476   1.420       .  A
C3476     Br3477   1.938       .  S
C3481      C3482   1.413       .  A
C3481      C3486   1.413       .  A
C3481     Br3488   1.932       .  S
C3482      C3483   1.413       .  A
C3483      C3484   1.408       .  A
C3483     Br3490   1.926       .  S
C3484      C3485   1.415       .  A
C3484     Br3489   1.934       .  S
C3485      C3486   1.416       .  A
C3486     Br3487   1.932       .  S
C3491      C3492   1.416       .  A
C3491      C3496   1.412       .  A
C3491     Br3498   1.930       .  S
C3492      C3493   1.418       .  A
C3493      C3494   1.415       .  A
C3493     Br3500   1.932       .  S
C3494      C3495   1.415       .  A
C3494     Br3499   1.932       .  S
C3495      C3496   1.415       .  A
C3496     Br3497   1.930       .  S
C3501      C3502   1.416       .  A
C3501      C3506   1.412       .  A
C3501     Br3508   1.935       .  S
C3502      C3503   1.416       .  A
C3503      C3504   1.415       .  A
C3503     Br3510   1.932       .  S
C3504      C3505   1.415       .  A
C3504     Br3509   1.932       .  S
C3505      C3506   1.415       .  A
C3506     Br3507   1.928       .  S
C3511      C3512   1.413       .  A
C3511      C3516   1.417       .  A
C3511     Br3518   1.932       .  S
C3512      C3513   1.409       .  A
C3513      C3514   1.405       .  A
C3513     Br3520   1.928       .  S
C3514      C3515   1.422       .  A
C3514     Br3519   1.942       .  S
C3515      C3516   1.421       .  A
C3516     Br3517   1.932       .  S
C3521      C3522   1.423       .  A
C3521      C3526   1.410       .  A
C3521     Br3528   1.935       .  S
C3522      C3523   1.419       .  A
C3523      C3524   1.413       .  A
C3523     Br3530   1.932       .  S
C3524      C3525   1.415       .  A
C3524     Br3529   1.931       .  S
C3525      C3526   1.411       .  A
C3526     Br3527   1.936       .  S
C3531      C3532   1.415       .  A
C3531      C3536   1.418       .  A
C3531     Br3538   1.933       .  S
C3532      C3533   1.409       .  A
C3533      C3534   1.406       .  A
C3533     Br3540   1.936       .  S
C3534      C3535   1.427       .  A
C3534     Br3539   1.941       .  S
C3535      C3536   1.422       .  A
C3536     Br3537   1.933       .  S
C3541      C3542   1.399       .  A
C3541      C3546   1.404       .  A
C3541     Br3548   1.933       .  S
C3542      C3543   1.413       .  A
C3543      C3544   1.417       .  A
C3543     Br3550   1.918       .  S
C3544      C3545   1.411       .  A
C3544     Br3549   1.927       .  S
C3545      C3546   1.419       .  A
C3546     Br3547   1.917       .  S
C3551      C3552   1.414       .  A
C3551      C3556   1.421       .  A
C3551     Br3558   1.926       .  S
C3552      C3553   1.396       .  A
C3553      C3554   1.392       .  A
C3553     Br3560   1.918       .  S
C3554      C3555   1.410       .  A
C3554     Br3559   1.912       .  S
C3555      C3556   1.415       .  A
C3556     Br3557   1.925       .  S
C3561      C3562   1.416       .  A
C3561      C3566   1.410       .  A
C3561     Br3568   1.936       .  S
C3562      C3563   1.421       .  A
C3563      C3564   1.414       .  A
C3563     Br3570   1.937       .  S
C3564      C3565   1.415       .  A
C3564     Br3569   1.933       .  S
C3565      C3566   1.416       .  A
C3566     Br3567   1.937       .  S
C3571      C3572   1.400       .  A
C3571      C3576   1.403       .  A
C3571     Br3578   1.930       .  S
C3572      C3573   1.417       .  A
C3573      C3574   1.425       .  A
C3573     Br3580   1.924       .  S
C3574      C3575   1.413       .  A
C3574     Br3579   1.925       .  S
C3575      C3576   1.414       .  A
C3576     Br3577   1.904       .  S
C3581      C3582   1.408       .  A
C3581      C3586   1.392       .  A
C3581     Br3588   1.884       .  S
C3582      C3583   1.411       .  A
C3583      C3584   1.421       .  A
C3583     Br3590   1.924       .  S
C3584      C3585   1.417       .  A
C3584     Br3589   1.927       .  S
C3585      C3586   1.392       .  A
C3586     Br3587   1.931       .  S
C3591      C3592   1.414       .  A
C3591      C3596   1.410       .  A
C3591     Br3598   1.934       .  S
C3592      C3593   1.419       .  A
C3593      C3594   1.414       .  A
C3593     Br3600   1.937       .  S
C3594      C3595   1.417       .  A
C3594     Br3599   1.937       .  S
C3595      C3596   1.416       .  A
C3596     Br3597   1.935       .  S
C3601      C3602   1.418       .  A
C3601      C3606   1.397       .  A
C3601     Br3608   1.912       .  S
C3602      C3603   1.410       .  A
C3603      C3604   1.413       .  A
C3603     Br3610   1.927       .  S
C3604      C3605   1.411       .  A
C3604     Br3609   1.929       .  S
C3605      C3606   1.396       .  A
C3606     Br3607   1.941       .  S
C3611      C3612   1.411       .  A
C3611      C3616   1.409       .  A
C3611     Br3618   1.934       .  S
C3612      C3613   1.415       .  A
C3613      C3614   1.419       .  A
C3613     Br3620   1.933       .  S
C3614      C3615   1.423       .  A
C3614     Br3619   1.933       .  S
C3615      C3616   1.425       .  A
C3616     Br3617   1.941       .  S
C3621      C3622   1.406       .  A
C3621      C3626   1.401       .  A
C3621     Br3628   1.935       .  S
C3622      C3623   1.411       .  A
C3623      C3624   1.413       .  A
C3623     Br3630   1.931       .  S
C3624      C3625   1.418       .  A
C3624     Br3629   1.932       .  S
C3625      C3626   1.425       .  A
C3626     Br3627   1.943       .  S
C3631      C3632   1.421       .  A
C3631      C3636   1.417       .  A
C3631     Br3638   1.940       .  S
C3632      C3633   1.418       .  A
C3633      C3634   1.415       .  A
C3633     Br3640   1.934       .  S
C3634      C3635   1.417       .  A
C3634     Br3639   1.934       .  S
C3635      C3636   1.422       .  A
C3636     Br3637   1.939       .  S
C3641      C3642   1.415       .  A
C3641      C3646   1.413       .  A
C3641     Br3648   1.931       .  S
C3642      C3643   1.414       .  A
C3643      C3644   1.415       .  A
C3643     Br3650   1.931       .  S
C3644      C3645   1.417       .  A
C3644     Br3649   1.932       .  S
C3645      C3646   1.415       .  A
C3646     Br3647   1.926       .  S
C3651      C3652   1.416       .  A
C3651      C3656   1.413       .  A
C3651     Br3658   1.933       .  S
C3652      C3653   1.421       .  A
C3653      C3654   1.416       .  A
C3653     Br3660   1.936       .  S
C3654      C3655   1.417       .  A
C3654     Br3659   1.936       .  S
C3655      C3656   1.416       .  A
C3656     Br3657   1.935       .  S
C3661      C3662   1.409       .  A
C3661      C3666   1.405       .  A
C3661     Br3668   1.935       .  S
C3662      C3663   1.420       .  A
C3663      C3664   1.418       .  A
C3663     Br3670   1.928       .  S
C3664      C3665   1.409       .  A
C3664     Br3669   1.928       .  S
C3665      C3666   1.414       .  A
C3666     Br3667   1.927       .  S
C3671      C3672   1.406       .  A
C3671      C3676   1.390       .  A
C3671     Br3678   1.937       .  S
C3672      C3673   1.425       .  A
C3673      C3674   1.425       .  A
C3673     Br3680   1.930       .  S
C3674      C3675   1.413       .  A
C3674     Br3679   1.927       .  S
C3675      C3676   1.411       .  A
C3676     Br3677   1.907       .  S
