geometry optimzed in LAMMPS
_audit_creation_date              2020-11-30 
_audit_creation_method            'lammps2cif' 
_symmetry_space_group_name_H-M    'P1' 
_symmetry_Int_Tables_number       1 
_symmetry_cell_setting            triclinic 
loop_ 
_symmetry_equiv_pos_as_xyz 
  x,y,z 
_cell_length_a                    47.62805106 
_cell_length_b                    47.68629705907375 
_cell_length_c                    31.267737191569747 
_cell_angle_alpha                 88.61966634381538 
_cell_angle_beta                  89.91632500018501 
_cell_angle_gamma                 120.28492504628436 
loop_ 
_atom_site_label 
_atom_site_type_symbol 
_atom_site_fract_x 
_atom_site_fract_y 
_atom_site_fract_z 
_atom_site_charge 
C1          C  0.36283071  0.16483136  0.48303420     0.04500
C2          C  0.36636418  0.19572930  0.98550721    -0.11700
C3          C  0.33918593  0.19944532  0.99116896     0.02000
C4          C  0.30806579  0.17152850  0.99277597    -0.10200
C5          C  0.30383901  0.14043623  0.48697861     0.04500
C6          C  0.33156128  0.13741895  0.48184642    -0.09600
H7          H  0.39061334  0.21682865  0.98424704     0.10100
H8          H  0.28715793  0.17388724  0.00001003     0.07600
H9          H  0.32899458  0.11367262  0.47854976     0.07400
C10         C  0.16503957  0.36293586  0.97688724     0.04500
C11         C  0.19509555  0.36405090  0.97835867    -0.11700
C12         C  0.19663742  0.33546530  0.97534565     0.02000
C13         C  0.16779776  0.30551968  0.97141804    -0.10200
C14         C  0.13763486  0.30398585  0.97010929     0.04500
C15         C  0.13663457  0.33281863  0.97073801    -0.09600
H16         H  0.21709730  0.38671155  0.98475623     0.10100
H17         H  0.16871489  0.28326142  0.97172783     0.07600
H18         H  0.11324535  0.33140447  0.96893331     0.07400
C19         C  0.36869547  0.37444129  0.06344906     0.87800
C20         C  0.33389074  0.36738247  0.05470259    -0.52400
C21         C  0.32187357  0.35282083  0.01656842     0.10800
C22         C  0.34539416  0.34629139  0.49066540     0.21700
C23         C  0.36535467  0.34083005  0.06002706    -0.53100
C24         C  0.35410308  0.32621159  0.02174305     0.10900
C25         C  0.38854996  0.39404224  0.02378000    -0.52700
C26         C  0.37646111  0.37954972  0.48593014     0.11400
H27         H  0.31905351  0.37216526  0.07606941     0.16000
H28         H  0.33581579  0.33518677  0.45936866     0.01700
H29         H  0.37084883  0.32941661  0.08659406     0.16300
H30         H  0.41039155  0.41776953  0.02555086     0.16000
C31         C  0.50270421  0.12661376  0.05239801     0.87800
C32         C  0.03103326  0.16173406  0.04422408    -0.52400
C33         C  0.02984510  0.17527581  0.00564386     0.10800
C34         C  0.50020307  0.15286853  0.47877362     0.21700
C35         C  0.47252173  0.13025455  0.04722722    -0.53100
C36         C  0.47102746  0.14379298  0.00883685     0.10900
C37         C  0.50294883  0.10801388  0.01325696    -0.52700
C38         C  0.50164350  0.12153179  0.47507613     0.11400
H39         H  0.04958925  0.17589606  0.06703125     0.16000
H40         H  0.99922834  0.16397727  0.44758002     0.01700
H41         H  0.45417864  0.12337133  0.07224173     0.16300
H42         H  0.50416752  0.08587782  0.01556067     0.16000
C43         C  0.12646731  0.00034378  0.05738269     0.87800
C44         C  0.13591067  0.47407757  0.05451581    -0.52400
C45         C  0.14890723  0.47280239  0.01606938     0.10800
C46         C  0.15405835  0.00038012  0.48473462     0.21700
C47         C  0.15896093  0.03167070  0.04779259    -0.53100
C48         C  0.17333176  0.03178319  0.00992497     0.10900
C49         C  0.10564301  0.49593073  0.01748641    -0.52700
C50         C  0.11991612  0.99596511  0.47990974     0.11400
H51         H  0.13411837  0.45854248  0.08144633     0.16000
H52         H  0.16554698  0.00049334  0.45381041     0.01700
H53         H  0.17064743  0.05135003  0.07002504     0.16300
H54         H  0.08177396  0.49358170  0.01961687     0.16000
O55         O  0.47364154  0.44950737  0.21413398    -0.84000
O56         O  0.03812062  0.47642984  0.23276381    -0.81000
C57         C  0.05194492  0.00028599  0.20730306     0.99500
O58         O  0.04940773  0.02492895  0.21283055    -0.81100
O59         O  0.02147830  0.06074859  0.23187473    -0.83700
C60         C  0.99808121  0.05031290  0.20585532     1.04000
O61         O  0.47327157  0.02271157  0.21240555    -0.76500
O62         O  0.43611332  0.45936181  0.23630514    -0.76700
C63         C  0.44584813  0.44616418  0.21010279     1.03900
O64         O  0.45596605  0.43772483  0.30437379    -0.84000
O65         O  0.02058828  0.46975353  0.32255845    -0.81100
C66         C  0.04905584  0.99310028  0.32810120     0.99500
O67         O  0.06054457  0.01745831  0.30229260    -0.81100
O68         O  0.02719043  0.04865529  0.32196777    -0.83700
C69         C  0.50379943  0.05363401  0.32631078     1.04000
O70         O  0.48053354  0.04170600  0.30028975    -0.76500
O71         O  0.44950999  0.47790635  0.32394999    -0.76700
C72         C  0.44438272  0.44950540  0.33036315     1.03900
Cr73       Cr  0.49721724  0.46116082  0.26836043     1.93700
Cr74       Cr  0.03684892  0.03521156  0.26742412     1.93200
Cr75       Cr  0.46281953  0.50069009  0.26790407     1.39100
O76         O  0.49890425  0.99862467  0.26853592    -1.21700
C77         C  0.08957994  0.97166233  0.12390308     0.24900
C78         C  0.10859467  0.00022985  0.09837273    -0.23200
C79         C  0.10766059  0.52854987  0.10827761     0.19900
C80         C  0.09023408  0.52882223  0.14409543     0.24900
C81         C  0.07177729  0.00025164  0.17041028    -0.23100
C82         C  0.07220285  0.97198210  0.15985449     0.19800
F83         F  0.05457213  0.94393256  0.18317377    -0.13100
F84         F  0.08528707  0.94245822  0.11285529    -0.15400
F85         F  0.09050975  0.55678998  0.15235126    -0.15400
F86         F  0.12224344  0.55566699  0.08256826    -0.13100
C87         C  0.11910312  0.51441070  0.40352682     0.24900
C88         C  0.10337974  0.99261890  0.43844748    -0.23200
C89         C  0.07048521  0.96880186  0.43440932     0.19900
C90         C  0.05324565  0.96835850  0.39808459     0.24900
C91         C  0.06849289  0.99188725  0.36469574    -0.23100
C92         C  0.10182464  0.51427629  0.36715791     0.19800
F93         F  0.11796511  0.53647320  0.33508552    -0.13100
F94         F  0.15112911  0.53698360  0.40568506    -0.15400
F95         F  0.02123392  0.94539644  0.39654538    -0.15400
F96         F  0.05482245  0.94596175  0.46600197    -0.13100
C97         C  0.47387360  0.06878425  0.37834670     0.24900
C98         C  0.50354058  0.07340057  0.36197321    -0.23200
C99         C  0.03270978  0.09554194  0.38190061     0.19900
C100        C  0.03208104  0.11209525  0.41786184     0.24900
C101        C  0.50243055  0.10701903  0.43434595    -0.23100
C102        C  0.47335670  0.08506240  0.41465912     0.19800
F103        F  0.44430920  0.07762365  0.43231255    -0.13100
F104        F  0.44515502  0.04708658  0.36082300    -0.15400
F105        F  0.06033305  0.13199571  0.43779440    -0.15400
F106        F  0.06185283  0.10088146  0.36701647    -0.13100
C107        C  0.03013453  0.11740650  0.11909614     0.24900
C108        C  0.50225233  0.10840121  0.09397364    -0.23200
C109        C  0.47358405  0.07903266  0.10547334     0.19900
C110        C  0.47207197  0.06075776  0.14194625     0.24900
C111        C  0.49946990  0.07058497  0.16787463    -0.23100
C112        C  0.02854094  0.09906079  0.15572733     0.19800
F113        F  0.05613687  0.10863781  0.17823055    -0.13100
F114        F  0.05982590  0.14231726  0.10716879    -0.15400
F115        F  0.44360782  0.03301176  0.15126572    -0.15400
F116        F  0.44687545  0.06720215  0.08052870    -0.13100
C117        C  0.40145283  0.38116148  0.41456867     0.24900
C118        C  0.39131885  0.39589428  0.44438239    -0.23200
C119        C  0.39668732  0.42718066  0.43536552     0.19900
C120        C  0.41295879  0.44407046  0.39786330     0.24900
C121        C  0.42466980  0.43014936  0.36848747    -0.23100
C122        C  0.41820267  0.39817472  0.37705232     0.19800
F123        F  0.42858041  0.38349233  0.34969886    -0.13100
F124        F  0.39637472  0.35083027  0.42265471    -0.15400
F125        F  0.41761595  0.47435964  0.39093908    -0.15400
F126        F  0.38607050  0.44147377  0.46306674    -0.13100
C127        C  0.41660647  0.39395455  0.11243132     0.24900
C128        C  0.38631617  0.39160991  0.10416068    -0.23200
C129        C  0.37576663  0.40757991  0.13197279     0.19900
C130        C  0.39462696  0.42456192  0.16690277     0.24900
C131        C  0.42470007  0.42655988  0.17478765    -0.23100
C132        C  0.43518761  0.41069565  0.14722370     0.19800
F133        F  0.46394426  0.41174184  0.15314783    -0.13100
F134        F  0.42900156  0.38066330  0.08577347    -0.15400
F135        F  0.38371778  0.43995726  0.19216651    -0.15400
F136        F  0.34847720  0.40894922  0.12476986    -0.13100
C137        C  0.09972516  0.24703843  0.94681250     0.24900
C138        C  0.10719405  0.27217578  0.97521572    -0.23200
C139        C  0.08683010  0.26594205  0.01116460     0.19900
C140        C  0.06074127  0.23467858  0.01994151     0.24900
C141        C  0.05431879  0.20914359  0.99276576    -0.23100
C142        C  0.07319152  0.21581586  0.95525798     0.19800
F143        F  0.06701500  0.19178587  0.92793985    -0.13100
F144        F  0.11856278  0.25261741  0.41142825    -0.15400
F145        F  0.04211252  0.22914210  0.05557181    -0.15400
F146        F  0.09334167  0.28968209  0.03925116    -0.13100
C147        C  0.13246091  0.41402270  0.02243773     0.24900
C148        C  0.15441592  0.44547817  0.00607789    -0.23200
C149        C  0.18074380  0.44995043  0.48030749     0.19900
C150        C  0.18443749  0.42333929  0.47042967     0.24900
C151        C  0.16232795  0.39192397  0.98708093    -0.23100
C152        C  0.13705250  0.38807342  0.01442401     0.19800
F153        F  0.11675182  0.35909096  0.03437922    -0.13100
F154        F  0.10564516  0.40780740  0.04548877    -0.15400
F155        F  0.20931504  0.42830040  0.44409859    -0.15400
F156        F  0.20322360  0.48001477  0.46522250    -0.13100
C157        C  0.25524184  0.35665362  0.45614501     0.24900
C158        C  0.22792148  0.33655804  0.98222052    -0.23200
C159        C  0.23121496  0.31928168  0.01708705     0.19900
C160        C  0.26167104  0.32351050  0.02713356     0.24900
C161        C  0.28917703  0.34467131  0.00215574    -0.23100
C162        C  0.28565687  0.36045971  0.46585993     0.19800
F163        F  0.31198607  0.38099799  0.44131472    -0.13100
F164        F  0.25253678  0.37308124  0.42183053    -0.15400
F165        F  0.26453457  0.30762394  0.06197365    -0.15400
F166        F  0.20528503  0.29973240  0.04287514    -0.13100
C167        C  0.24413750  0.11163523  0.96945154     0.24900
C168        C  0.27056467  0.11118137  0.98921239    -0.23200
C169        C  0.26451637  0.08309157  0.01299348     0.19900
C170        C  0.23294822  0.05653570  0.01733525     0.24900
C171        C  0.20673769  0.05768964  0.99893827    -0.23100
C172        C  0.21245129  0.08531055  0.97491990     0.19800
F173        F  0.18724247  0.08735408  0.95821110    -0.13100
F174        F  0.24885730  0.13772625  0.94523088    -0.15400
F175        F  0.22766238  0.03019310  0.04144057    -0.15400
F176        F  0.28872870  0.08193161  0.53432334    -0.13100
C177        C  0.32225163  0.24132641  0.47891171     0.24900
C178        C  0.34342639  0.23222580  0.99783224    -0.23200
C179        C  0.36857011  0.25467077  0.02365430     0.19900
C180        C  0.37280723  0.28545595  0.02965815     0.24900
C181        C  0.35080467  0.29413140  0.01226562    -0.23100
C182        C  0.32543700  0.27158277  0.48680127     0.19800
F183        F  0.30288228  0.27810339  0.47055165    -0.13100
F184        F  0.29846772  0.22102313  0.45239798    -0.15400
F185        F  0.39892876  0.30683886  0.05223329    -0.15400
F186        F  0.38873782  0.24668196  0.04432022    -0.12900
C187        C  0.41139149  0.17326221  0.02352907     0.24900
C188        C  0.39175218  0.16112724  0.98734990    -0.23200
C189        C  0.39944021  0.14482289  0.45680294     0.19900
C190        C  0.42632584  0.14065043  0.46249060     0.24900
C191        C  0.44499569  0.15144027  0.99969062    -0.23100
C192        C  0.43763401  0.16835885  0.02970898     0.19800
F193        F  0.45598319  0.18026801  0.06511723    -0.13100
F194        F  0.40438074  0.18883743  0.05384530    -0.15400
F195        F  0.43348601  0.12533471  0.43217131    -0.15400
F196        F  0.38091814  0.13295799  0.42154543    -0.13100
C197        C  0.36282863  0.16483051  0.98303182     0.04500
C198        C  0.36636660  0.19573028  0.48550846    -0.11700
C199        C  0.33918858  0.19944677  0.49117015     0.02000
C200        C  0.30806834  0.17153000  0.49277785    -0.10200
C201        C  0.30383669  0.14043487  0.98697578     0.04500
C202        C  0.33155921  0.13741802  0.98184299    -0.09600
H203        H  0.39061596  0.21682943  0.48424719     0.10100
H204        H  0.28716033  0.17388877  0.50001155     0.07600
H205        H  0.32899274  0.11367187  0.97854520     0.07400
C206        C  0.16503920  0.36293762  0.47689922     0.04500
C207        C  0.19509526  0.36405281  0.47837172    -0.11700
C208        C  0.19663724  0.33546717  0.47536051     0.02000
C209        C  0.16779780  0.30552143  0.47143362    -0.10200
C210        C  0.13763485  0.30398731  0.47012330     0.04500
C211        C  0.13663426  0.33282004  0.47075084    -0.09600
H212        H  0.21709702  0.38671365  0.48476835     0.10100
H213        H  0.16871518  0.28326317  0.47174454     0.07600
H214        H  0.11324501  0.33140566  0.46894494     0.07400
C215        C  0.36869827  0.37444180  0.56345189     0.87800
C216        C  0.33389320  0.36738276  0.55470872    -0.52400
C217        C  0.32187443  0.35282153  0.51657486     0.10800
C218        C  0.34539436  0.34629074  0.99066168     0.21700
C219        C  0.36535671  0.34083027  0.56002890    -0.53100
C220        C  0.35410413  0.32621220  0.52174496     0.10900
C221        C  0.38855170  0.39404245  0.52378226    -0.52700
C222        C  0.37646118  0.37954915  0.98592770     0.11400
H223        H  0.31905657  0.37216363  0.57607932     0.16000
H224        H  0.33581746  0.33518628  0.95936448     0.01700
H225        H  0.37085104  0.32941613  0.58659496     0.16300
H226        H  0.41039403  0.41776932  0.52555266     0.16000
C227        C  0.50270537  0.12661293  0.55239809     0.87800
C228        C  0.03103135  0.16173156  0.54422782    -0.52400
C229        C  0.02984504  0.17527524  0.50564828     0.10800
C230        C  0.50020074  0.15286682  0.97877182     0.21700
C231        C  0.47252302  0.13025395  0.54722779    -0.53100
C232        C  0.47102934  0.14379371  0.50883826     0.10900
C233        C  0.50295053  0.10801435  0.51325597    -0.52700
C234        C  0.50164132  0.12153011  0.97507636     0.11400
H235        H  0.04958607  0.17589176  0.56703759     0.16000
H236        H  0.99922609  0.16397495  0.94757769     0.01700
H237        H  0.45417967  0.12337012  0.57224208     0.16300
H238        H  0.50416888  0.08587808  0.51555842     0.16000
C239        C  0.12646919  0.00034523  0.55738309     0.87800
C240        C  0.13591166  0.47408295  0.55451819    -0.52400
C241        C  0.14890823  0.47280671  0.51607231     0.10800
C242        C  0.15405643  0.00037846  0.98473451     0.21700
C243        C  0.15896270  0.03167226  0.54779290    -0.53100
C244        C  0.17333362  0.03178493  0.50992521     0.10900
C245        C  0.10564276  0.49593355  0.51748609    -0.52700
C246        C  0.11991436  0.99596367  0.97990940     0.11400
H247        H  0.13411919  0.45854846  0.58144962     0.16000
H248        H  0.16554505  0.00049170  0.95381021     0.01700
H249        H  0.17064917  0.05135150  0.57002553     0.16300
H250        H  0.08177335  0.49358389  0.51961584     0.16000
O251        O  0.47364429  0.44951178  0.71413362    -0.84000
O252        O  0.03812112  0.47643405  0.73276478    -0.81000
C253        C  0.05194336  0.00028505  0.70730172     0.99500
O254        O  0.04940642  0.02492810  0.71282969    -0.81100
O255        O  0.02147683  0.06074730  0.73187418    -0.83700
C256        C  0.99807948  0.05031122  0.70585512     1.04000
O257        O  0.47327195  0.02271115  0.71240603    -0.76500
O258        O  0.43611522  0.45936427  0.73630687    -0.76700
C259        C  0.44585038  0.44616749  0.71010367     1.03900
O260        O  0.45596862  0.43772759  0.80437342    -0.84000
O261        O  0.02058871  0.46975626  0.82255955    -0.81100
C262        C  0.04905509  0.99309928  0.82809992     0.99500
O263        O  0.06054366  0.01745743  0.80229161    -0.81100
O264        O  0.02718974  0.04865448  0.82196737    -0.83700
C265        C  0.50380035  0.05363407  0.82631113     1.04000
O266        O  0.48053494  0.04170687  0.80028945    -0.76500
O267        O  0.44951262  0.47790867  0.82395187    -0.76700
C268        C  0.44438523  0.44950756  0.83036369     1.03900
Cr269      Cr  0.49721980  0.46116432  0.76835998     1.93700
Cr270      Cr  0.03684775  0.03521060  0.76742350     1.93200
Cr271      Cr  0.46282121  0.50069260  0.76790596     1.39100
O272        O  0.49890459  0.99862469  0.76853642    -1.21700
C273        C  0.08958155  0.97166322  0.62390335     0.24900
C274        C  0.10859625  0.00023092  0.59837322    -0.23200
C275        C  0.10766014  0.52855487  0.60827766     0.19900
C276        C  0.09023326  0.52882689  0.64409551     0.24900
C277        C  0.07177663  0.00025134  0.67040939    -0.23100
C278        C  0.07220347  0.97198236  0.65985413     0.19800
F279        F  0.05457299  0.94393266  0.68317318    -0.13100
F280        F  0.08528971  0.94245946  0.61285597    -0.15400
F281        F  0.09050868  0.55679446  0.65235184    -0.15400
F282        F  0.12224348  0.55567226  0.58256889    -0.13100
C283        C  0.11910336  0.51441097  0.90352750     0.24900
C284        C  0.10337830  0.99261778  0.93844697    -0.23200
C285        C  0.07048391  0.96880064  0.93440822     0.19900
C286        C  0.05324467  0.96835731  0.89808318     0.24900
C287        C  0.06849210  0.99188620  0.86469452    -0.23100
C288        C  0.10182495  0.51427778  0.86715911     0.19800
F289        F  0.11796570  0.53647496  0.83508711    -0.13100
F290        F  0.15112956  0.53698319  0.90568577    -0.15400
F291        F  0.02123300  0.94539509  0.89654350    -0.15400
F292        F  0.05482092  0.94596042  0.96600066    -0.13100
C293        C  0.47387326  0.06878152  0.87834820     0.24900
C294        C  0.50354080  0.07339969  0.86197412    -0.23200
C295        C  0.03270937  0.09554184  0.88189984     0.19900
C296        C  0.03208065  0.11209497  0.91786128     0.24900
C297        C  0.50242909  0.10701694  0.93434700    -0.23100
C298        C  0.47335557  0.08505932  0.91466047     0.19800
F299        F  0.44430773  0.07761957  0.93231382    -0.13100
F300        F  0.44515504  0.04708255  0.86082496    -0.15400
F301        F  0.06033284  0.13199652  0.93779278    -0.15400
F302        F  0.06185254  0.10088275  0.86701415    -0.13100
C303        C  0.03013456  0.11739813  0.61908740     0.24900
C304        C  0.50225341  0.10839947  0.59397265    -0.23200
C305        C  0.47358431  0.07903225  0.60547413     0.19900
C306        C  0.47207223  0.06075759  0.64194728     0.24900
C307        C  0.49947099  0.07058348  0.66787355    -0.23100
C308        C  0.02854155  0.09905318  0.65571903     0.19800
F309        F  0.05613999  0.10862487  0.67821434    -0.13100
F310        F  0.05982721  0.14230222  0.60715022    -0.15400
F311        F  0.44360721  0.03301320  0.65126921    -0.15400
F312        F  0.44687497  0.06720262  0.58053101    -0.13100
C313        C  0.40146047  0.38116432  0.91457120     0.24900
C314        C  0.39131986  0.39589405  0.94438068    -0.23200
C315        C  0.39668270  0.42717796  0.93536066     0.19900
C316        C  0.41295437  0.44406825  0.89785882     0.24900
C317        C  0.42467187  0.43015047  0.86848716    -0.23100
C318        C  0.41821091  0.39817830  0.87705555     0.19800
F319        F  0.42859560  0.38349930  0.84970660    -0.13100
F320        F  0.39638833  0.35083573  0.92266107    -0.15400
F321        F  0.41760499  0.47435460  0.89093071    -0.15400
F322        F  0.38606026  0.44146815  0.96305848    -0.13100
C323        C  0.41660498  0.39394815  0.61244167     0.24900
C324        C  0.38631905  0.39161110  0.60416291    -0.23200
C325        C  0.37577540  0.40759253  0.63196366     0.19900
C326        C  0.39463510  0.42457505  0.66689366     0.24900
C327        C  0.42470228  0.42656274  0.67478911    -0.23100
C328        C  0.43518502  0.41068895  0.64723493     0.19800
F329        F  0.46393597  0.41172517  0.65316979    -0.13100
F330        F  0.42899734  0.38065014  0.58579103    -0.15400
F331        F  0.38373252  0.43998253  0.69214517    -0.15400
F332        F  0.34849448  0.40897485  0.62474645    -0.13100
C333        C  0.09972685  0.24704049  0.44682321     0.24900
C334        C  0.10719418  0.27217688  0.47522752    -0.23200
C335        C  0.08682904  0.26594164  0.51117544     0.19900
C336        C  0.06074051  0.23467755  0.51995044     0.24900
C337        C  0.05431933  0.20914359  0.49277330    -0.23100
C338        C  0.07319346  0.21581741  0.45526658     0.19800
F339        F  0.06701858  0.19178835  0.42794754    -0.13100
F340        F  0.11855988  0.25261384  0.91141670    -0.15400
F341        F  0.04211072  0.22913952  0.55558010    -0.15400
F342        F  0.09333910  0.28968088  0.53926272    -0.13100
C343        C  0.13246060  0.41402673  0.52244295     0.24900
C344        C  0.15441632  0.44548178  0.50608248    -0.23200
C345        C  0.18074340  0.44994799  0.98030194     0.19900
C346        C  0.18443736  0.42333745  0.97042165     0.24900
C347        C  0.16232758  0.39192628  0.48709001    -0.23100
C348        C  0.13705169  0.38807682  0.51443137     0.19800
F349        F  0.11675020  0.35909489  0.53438726    -0.13100
F350        F  0.10564467  0.40781249  0.54549269    -0.15400
F351        F  0.20931467  0.42829962  0.94408932    -0.15400
F352        F  0.20322307  0.48001292  0.96521858    -0.13100
C353        C  0.25524375  0.35665585  0.95613552     0.24900
C354        C  0.22792134  0.33656010  0.48223504    -0.23200
C355        C  0.23121645  0.31928749  0.51710484     0.19900
C356        C  0.26167267  0.32351581  0.52714918     0.24900
C357        C  0.28917709  0.34467209  0.50216560    -0.23100
C358        C  0.28565871  0.36046270  0.96585286     0.19800
F359        F  0.31198952  0.38100517  0.94131304    -0.13100
F360        F  0.25254052  0.37308703  0.92182390    -0.15400
F361        F  0.26453787  0.30763307  0.56199241    -0.15400
F362        F  0.20528804  0.29974220  0.54289748    -0.13100
C363        C  0.24414061  0.11163614  0.46945088     0.24900
C364        C  0.27056701  0.11118294  0.48921497    -0.23200
C365        C  0.26451807  0.08309401  0.51299858     0.19900
C366        C  0.23294983  0.05653819  0.51733975     0.24900
C367        C  0.20673988  0.05769126  0.49893919    -0.23100
C368        C  0.21245427  0.08531137  0.47491810     0.19800
F369        F  0.18724608  0.08735420  0.45820568    -0.13100
F370        F  0.24886133  0.13772669  0.44522832    -0.15400
F371        F  0.22766324  0.03019643  0.54144762    -0.15400
F372        F  0.28872755  0.08192815  0.03431529    -0.13100
C373        C  0.32225015  0.24132566  0.97890956     0.24900
C374        C  0.34342937  0.23222756  0.49783225    -0.23200
C375        C  0.36857467  0.25467384  0.52365139     0.19900
C376        C  0.37281128  0.28545881  0.52965516     0.24900
C377        C  0.35080668  0.29413272  0.51226598    -0.23100
C378        C  0.32543596  0.27158225  0.98679878     0.19800
F379        F  0.30288257  0.27810384  0.97054663    -0.13100
F380        F  0.29846746  0.22102321  0.95239380    -0.15400
F381        F  0.39893409  0.30684299  0.55222727    -0.15400
F382        F  0.38874426  0.24668653  0.54431514    -0.12900
C383        C  0.41139184  0.17326074  0.52353322     0.24900
C384        C  0.39175400  0.16112787  0.48735251    -0.23200
C385        C  0.39943701  0.14482003  0.95680200     0.19900
C386        C  0.42632243  0.14064722  0.96249002     0.24900
C387        C  0.44499763  0.15144117  0.49969268    -0.23100
C388        C  0.43763440  0.16835743  0.52971298     0.19800
F389        F  0.45598226  0.18026457  0.56512271    -0.13100
F390        F  0.40437966  0.18883399  0.55385076    -0.15400
F391        F  0.43348097  0.12532892  0.93217265    -0.15400
F392        F  0.38091379  0.13295321  0.92154581    -0.13100
C393        C  0.36276062  0.66472845  0.48439126     0.04500
C394        C  0.36637219  0.69561763  0.98733456    -0.11700
C395        C  0.33919666  0.69936832  0.99273616     0.02000
C396        C  0.30803585  0.67146825  0.99388361    -0.10200
C397        C  0.30380435  0.64040661  0.48775787     0.04500
C398        C  0.33151568  0.63737738  0.48271057    -0.09600
H399        H  0.39066217  0.71665596  0.98647286     0.10100
H400        H  0.28708848  0.67380217  0.00093672     0.07600
H401        H  0.32895651  0.61365847  0.47908414     0.07400
C402        C  0.16508175  0.86329938  0.97585483     0.04500
C403        C  0.19509820  0.86436950  0.97760193    -0.11700
C404        C  0.19660869  0.83577419  0.97461613     0.02000
C405        C  0.16776999  0.80587656  0.97031236    -0.10200
C406        C  0.13764424  0.80441430  0.96868825     0.04500
C407        C  0.13668939  0.83326602  0.96936598    -0.09600
H408        H  0.21706192  0.88699132  0.98428762     0.10100
H409        H  0.16863604  0.78359100  0.97067475     0.07600
H410        H  0.11333086  0.83192201  0.96752296     0.07400
C411        C  0.36810410  0.87419070  0.06449753     0.87800
C412        C  0.33326361  0.86701386  0.05564641    -0.52400
C413        C  0.32133391  0.85239533  0.01751679     0.10800
C414        C  0.34499465  0.84601219  0.49167218     0.21700
C415        C  0.36505350  0.84072248  0.06103066    -0.53100
C416        C  0.35385258  0.82607188  0.02277089     0.10900
C417        C  0.38788040  0.89392677  0.02480012    -0.52700
C418        C  0.37595971  0.87934228  0.48696063     0.11400
H419        H  0.31847627  0.87216534  0.07654262     0.16000
H420        H  0.33551776  0.83490095  0.46034899     0.01700
H421        H  0.37078239  0.82946343  0.08755297     0.16300
H422        H  0.40962098  0.91773295  0.02654747     0.16000
C423        C  0.50366679  0.62734628  0.05188124     0.87800
C424        C  0.03182540  0.66249052  0.04333239    -0.52400
C425        C  0.03012861  0.67587227  0.00488255     0.10800
C426        C  0.50024765  0.65332692  0.47850997     0.21700
C427        C  0.47332663  0.63074757  0.04735771    -0.53100
C428        C  0.47136051  0.64421264  0.00916495     0.10900
C429        C  0.50364775  0.60873055  0.01261522    -0.52700
C430        C  0.50183600  0.62208402  0.47455965     0.11400
H431        H  0.05069224  0.67680259  0.06567170     0.16000
H432        H  0.99896942  0.66437093  0.44742265     0.01700
H433        H  0.45513324  0.62357648  0.07264827     0.16300
H434        H  0.50511588  0.58672592  0.01473815     0.16000
C435        C  0.12650288  0.50045793  0.05686614     0.87800
C436        C  0.13603647  0.97408546  0.05499245    -0.52400
C437        C  0.14911959  0.97294262  0.01656213     0.10800
C438        C  0.15386083  0.50019935  0.48414547     0.21700
C439        C  0.15904024  0.53167634  0.04708939    -0.53100
C440        C  0.17327702  0.53166597  0.00917855     0.10900
C441        C  0.10569127  0.99584090  0.01791227    -0.52700
C442        C  0.11973344  0.49588029  0.47944262     0.11400
H443        H  0.13441163  0.95861049  0.08189315     0.16000
H444        H  0.16526682  0.50017640  0.45321025     0.01700
H445        H  0.17092389  0.55135605  0.06928118     0.16300
H446        H  0.08177064  0.99337978  0.01995647     0.16000
O447        O  0.47331675  0.94873574  0.21513042    -0.84000
O448        O  0.03791135  0.97604449  0.23318050    -0.81000
C449        C  0.05237455  0.50074056  0.20704165     0.99500
O450        O  0.04991974  0.52543783  0.21256994    -0.81100
O451        O  0.02210999  0.56141938  0.23152188    -0.83700
C452        C  0.99882861  0.55108699  0.20534055     1.04000
O453        O  0.47393799  0.52353442  0.21173421    -0.76500
O454        O  0.43579402  0.95853772  0.23746972    -0.76700
C455        C  0.44549341  0.94533584  0.21123723     1.03900
O456        O  0.45606982  0.93721284  0.30552617    -0.84000
O457        O  0.02077482  0.96959624  0.32311131    -0.81100
C458        C  0.04889615  0.49317553  0.32771678     0.99500
O459        O  0.06053480  0.51761365  0.30204584    -0.81100
O460        O  0.02733610  0.54898949  0.32164056    -0.83700
C461        C  0.50401035  0.55408709  0.32587308     1.04000
O462        O  0.48085142  0.54231620  0.29968091    -0.76500
O463        O  0.44947944  0.97735193  0.32492506    -0.76700
C464        C  0.44442446  0.94898203  0.33144701     1.03900
Cr465      Cr  0.49714958  0.96070170  0.26912903     1.93700
Cr466      Cr  0.03716361  0.53564418  0.26710692     1.93200
Cr467      Cr  0.46249589  0.99999629  0.26874178     1.39100
O468        O  0.49914334  0.49915648  0.26790272    -1.21700
C469        C  0.08933432  0.47180796  0.12308157     0.24900
C470        C  0.10881863  0.50048497  0.09797766    -0.23200
C471        C  0.10676464  0.02802283  0.10807741     0.19900
C472        C  0.08916164  0.02822074  0.14373732     0.24900
C473        C  0.07228758  0.50067232  0.17026423    -0.23100
C474        C  0.07212949  0.47219488  0.15919429     0.19800
F475        F  0.05408452  0.44403979  0.18214606    -0.13100
F476        F  0.08448877  0.44250610  0.11145168    -0.15400
F477        F  0.08870483  0.05591088  0.15133125    -0.15400
F478        F  0.12091177  0.05492225  0.08193772    -0.13100
C479        C  0.11931864  0.01463453  0.40402414     0.24900
C480        C  0.10312213  0.49251382  0.43803692    -0.23200
C481        C  0.07016078  0.46882259  0.43410894     0.19900
C482        C  0.05292868  0.46839110  0.39776713     0.24900
C483        C  0.06824961  0.49182727  0.36430651    -0.23100
C484        C  0.10202672  0.01448186  0.36764097     0.19800
F485        F  0.11810339  0.03679263  0.33566244    -0.13100
F486        F  0.15130488  0.03731221  0.40627772    -0.15400
F487        F  0.02087227  0.44555414  0.39626837    -0.15400
F488        F  0.05443452  0.44610326  0.46581200    -0.13100
C489        C  0.47413310  0.56972647  0.37743459     0.24900
C490        C  0.50374842  0.57386810  0.36155392    -0.23200
C491        C  0.03286794  0.59564180  0.38189717     0.19900
C492        C  0.03223703  0.61227549  0.41775829     0.24900
C493        C  0.50264429  0.60767533  0.43374724    -0.23100
C494        C  0.47361492  0.58616226  0.41360055     0.19800
F495        F  0.44457018  0.57932078  0.43065105    -0.13100
F496        F  0.44543686  0.54835407  0.35956234    -0.15400
F497        F  0.06042516  0.63186291  0.43803571    -0.15400
F498        F  0.06196944  0.60054569  0.36752874    -0.13100
C499        C  0.03094388  0.61874840  0.11937076     0.24900
C500        C  0.50340093  0.60912778  0.09331832    -0.23200
C501        C  0.47499156  0.57933956  0.10410443     0.19900
C502        C  0.47335353  0.56108602  0.14059985     0.24900
C503        C  0.50039487  0.57137641  0.16732904    -0.23100
C504        C  0.02924525  0.60035220  0.15600017     0.19800
F505        F  0.05651961  0.61047885  0.17941923    -0.13100
F506        F  0.06045366  0.64441142  0.10853440    -0.15400
F507        F  0.44511314  0.53291228  0.14914863    -0.15400
F508        F  0.44862157  0.56717036  0.07849418    -0.13100
C509        C  0.40213738  0.88112273  0.41651397     0.24900
C510        C  0.39101917  0.89555045  0.44543883    -0.23200
C511        C  0.39565447  0.92645078  0.43563034     0.19900
C512        C  0.41202794  0.94323819  0.39811805     0.24900
C513        C  0.42466570  0.92964867  0.36959100    -0.23100
C514        C  0.41902636  0.89805878  0.37901648     0.19800
F515        F  0.43037074  0.88371246  0.35256735    -0.13100
F516        F  0.39788281  0.85120701  0.42549722    -0.15400
F517        F  0.41579447  0.97308752  0.39029506    -0.15400
F518        F  0.38422206  0.94046079  0.46257201    -0.13100
C519        C  0.41679295  0.89485001  0.11205431     0.24900
C520        C  0.38577869  0.89119810  0.10525990    -0.23200
C521        C  0.37427930  0.90512080  0.13507502     0.19900
C522        C  0.39325268  0.92195968  0.16999644     0.24900
C523        C  0.42428981  0.92574223  0.17597970    -0.23100
C524        C  0.43555113  0.91157496  0.14671356     0.19800
F525        F  0.46522622  0.91433274  0.15079076    -0.13100
F526        F  0.42963454  0.88278327  0.08409688    -0.15400
F527        F  0.38130387  0.93520457  0.19740555    -0.15400
F528        F  0.34558016  0.90414725  0.13042166    -0.13100
C529        C  0.09965840  0.74745708  0.94548522     0.24900
C530        C  0.10716962  0.77265778  0.97380041    -0.23200
C531        C  0.08685460  0.76652089  0.00977452     0.19900
C532        C  0.06079066  0.73529041  0.01869027     0.24900
C533        C  0.05437864  0.70969317  0.99166507    -0.23100
C534        C  0.07315660  0.71624731  0.95409919     0.19800
F535        F  0.06695144  0.69210476  0.92695231    -0.13100
F536        F  0.11845786  0.75294227  0.41008323    -0.15400
F537        F  0.04223052  0.72982184  0.05437322    -0.15400
F538        F  0.09343442  0.79030678  0.03780918    -0.13100
C539        C  0.13279763  0.91417650  0.02275317     0.24900
C540        C  0.15466655  0.94567725  0.00641484    -0.23200
C541        C  0.18084852  0.95022024  0.48026321     0.19900
C542        C  0.18442454  0.92363680  0.46988219     0.24900
C543        C  0.16237320  0.89219298  0.98642749    -0.23100
C544        C  0.13726292  0.88823519  0.01415956     0.19800
F545        F  0.11699099  0.85914178  0.03387901    -0.13100
F546        F  0.10616894  0.90789082  0.04630239    -0.15400
F547        F  0.20911799  0.92863843  0.44316159    -0.15400
F548        F  0.20331022  0.98032741  0.46529677    -0.13100
C549        C  0.25537271  0.85700016  0.45641427     0.24900
C550        C  0.22779856  0.83678489  0.98201843    -0.23200
C551        C  0.23073388  0.81931750  0.01693814     0.19900
C552        C  0.26105549  0.82335678  0.02739555     0.24900
C553        C  0.28878322  0.84451107  0.00276740    -0.23100
C554        C  0.28564125  0.86059921  0.46651731     0.19800
F555        F  0.31219772  0.88122542  0.44239895    -0.13100
F556        F  0.25306068  0.87375698  0.42219777    -0.15400
F557        F  0.26356247  0.80728084  0.06227979    -0.15400
F558        F  0.20457712  0.79976429  0.04238503    -0.13100
C559        C  0.24425281  0.61165051  0.96940922     0.24900
C560        C  0.27053960  0.61114795  0.98951260    -0.23200
C561        C  0.26437775  0.58295189  0.01310414     0.19900
C562        C  0.23282526  0.55632329  0.01693950     0.24900
C563        C  0.20672527  0.55749085  0.99820118    -0.23100
C564        C  0.21256123  0.58522390  0.97433305     0.19800
F565        F  0.18745201  0.58729031  0.95730902    -0.13100
F566        F  0.24911092  0.63789183  0.94542300    -0.15400
F567        F  0.22741310  0.52991217  0.04098429    -0.15400
F568        F  0.28844523  0.58176405  0.53477314    -0.13100
C569        C  0.32230794  0.74122511  0.48012728     0.24900
C570        C  0.34344355  0.73216686  0.99927578    -0.23200
C571        C  0.36859368  0.75471653  0.02501949     0.19900
C572        C  0.37282635  0.78553209  0.03075604     0.24900
C573        C  0.35073919  0.79407670  0.01332338    -0.23100
C574        C  0.32540501  0.77144761  0.48790372     0.19800
F575        F  0.30279098  0.77785328  0.47158752    -0.13100
F576        F  0.29864893  0.72091670  0.45347778    -0.15400
F577        F  0.39900721  0.80706724  0.05311647    -0.15400
F578        F  0.38876910  0.74682096  0.04585515    -0.12900
C579        C  0.41016639  0.67151633  0.02600422     0.24900
C580        C  0.39156947  0.66092612  0.98877953    -0.23200
C581        C  0.40029860  0.64628071  0.45703506     0.19900
C582        C  0.42728032  0.64224789  0.46254208     0.24900
C583        C  0.44503117  0.65156445  0.00064396    -0.23100
C584        C  0.43655382  0.66682904  0.03193137     0.19800
F585        F  0.45402004  0.67748154  0.06825928    -0.13100
F586        F  0.40206895  0.68548812  0.05738975    -0.15400
F587        F  0.43544988  0.62853089  0.43108559    -0.15400
F588        F  0.38272746  0.63595969  0.42076562    -0.13100
C589        C  0.36275986  0.66472809  0.98439535     0.04500
C590        C  0.36637384  0.69561851  0.48732926    -0.11700
C591        C  0.33919875  0.69936998  0.49273107     0.02000
C592        C  0.30803770  0.67147031  0.49387983    -0.10200
C593        C  0.30380337  0.64040493  0.98776053     0.04500
C594        C  0.33151527  0.63737665  0.98271315    -0.09600
H595        H  0.39066394  0.71665640  0.48646668     0.10100
H596        H  0.28709064  0.67380477  0.50093316     0.07600
H597        H  0.32895686  0.61365818  0.97908541     0.07400
C598        C  0.16508067  0.86329803  0.47585910     0.04500
C599        C  0.19509717  0.86436821  0.47760604    -0.11700
C600        C  0.19660764  0.83577283  0.47462204     0.02000
C601        C  0.16776894  0.80587490  0.47032059    -0.10200
C602        C  0.13764308  0.80441246  0.46869578     0.04500
C603        C  0.13668822  0.83326425  0.46937196    -0.09600
H604        H  0.21706118  0.88699032  0.48429011     0.10100
H605        H  0.16863522  0.78358950  0.47068442     0.07600
H606        H  0.11332963  0.83192015  0.46752783     0.07400
C607        C  0.36810595  0.87419119  0.56449654     0.87800
C608        C  0.33326594  0.86701576  0.55564628    -0.52400
C609        C  0.32133546  0.85239791  0.51751647     0.10800
C610        C  0.34499445  0.84601154  0.99167269     0.21700
C611        C  0.36505181  0.84072119  0.56103068    -0.53100
C612        C  0.35385117  0.82607130  0.52277042     0.10900
C613        C  0.38788362  0.89392562  0.52479944    -0.52700
C614        C  0.37595801  0.87934294  0.98696129     0.11400
H615        H  0.31847773  0.87216251  0.57654765     0.16000
H616        H  0.33551825  0.83490033  0.96034938     0.01700
H617        H  0.37077863  0.82946054  0.58755305     0.16300
H618        H  0.40962561  0.91773073  0.52654684     0.16000
C619        C  0.50366594  0.62734425  0.55187859     0.87800
C620        C  0.03182260  0.66248723  0.54333074    -0.52400
C621        C  0.03012679  0.67586902  0.50488057     0.10800
C622        C  0.50024871  0.65332908  0.97851261     0.21700
C623        C  0.47332504  0.63074423  0.54735450    -0.53100
C624        C  0.47135891  0.64420939  0.50916177     0.10900
C625        C  0.50364808  0.60872911  0.51261255    -0.52700
C626        C  0.50183596  0.62208558  0.97456232     0.11400
H627        H  0.05068826  0.67679962  0.56567146     0.16000
H628        H  0.99896947  0.66437440  0.94742659     0.01700
H629        H  0.45513133  0.62357255  0.57264488     0.16300
H630        H  0.50511680  0.58672496  0.51473541     0.16000
C631        C  0.12650285  0.50046275  0.55686618     0.87800
C632        C  0.13603857  0.97408705  0.55499256    -0.52400
C633        C  0.14912151  0.97294420  0.51656210     0.10800
C634        C  0.15386048  0.50019627  0.98414434     0.21700
C635        C  0.15903974  0.53168141  0.54708812    -0.53100
C636        C  0.17327675  0.53167011  0.50917790     0.10900
C637        C  0.10569313  0.99584231  0.51791270    -0.52700
C638        C  0.11973350  0.49587838  0.97944235     0.11400
H639        H  0.13441364  0.95861182  0.58189295     0.16000
H640        H  0.16526632  0.50017409  0.95320860     0.01700
H641        H  0.17092327  0.55136182  0.56927904     0.16300
H642        H  0.08177237  0.99338106  0.51995702     0.16000
O643        O  0.47331555  0.94873601  0.71513096    -0.84000
O644        O  0.03790901  0.97604309  0.73317841    -0.81000
C645        C  0.05237427  0.50074480  0.70704256     0.99500
O646        O  0.04991924  0.52544184  0.71257185    -0.81100
O647        O  0.02210774  0.56142152  0.73152447    -0.83700
C648        C  0.99882628  0.55108829  0.70534315     1.04000
O649        O  0.47393879  0.52353678  0.71173626    -0.76500
O650        O  0.43579318  0.95853779  0.73747190    -0.76700
C651        C  0.44549215  0.94533609  0.71123862     1.03900
O652        O  0.45607030  0.93721369  0.80552788    -0.84000
O653        O  0.02077409  0.96959518  0.82311003    -0.81100
C654        C  0.04889635  0.49317849  0.82771834     0.99500
O655        O  0.06053460  0.51761722  0.80204830    -0.81100
O656        O  0.02733481  0.54899217  0.82164321    -0.83700
C657        C  0.50401157  0.55408999  0.82587468     1.04000
O658        O  0.48085250  0.54231865  0.79968278    -0.76500
O659        O  0.44948030  0.97735313  0.82492654    -0.76700
C660        C  0.44442518  0.94898319  0.83144874     1.03900
Cr661      Cr  0.49714936  0.96070156  0.76912888     1.93700
Cr662      Cr  0.03716260  0.53564723  0.76710940     1.93200
Cr663      Cr  0.46249638  0.99999674  0.76874274     1.39100
O664        O  0.49914547  0.49915973  0.76790365    -1.21700
C665        C  0.08933286  0.47181264  0.62307997     0.24900
C666        C  0.10881812  0.50048998  0.59797724    -0.23200
C667        C  0.10676538  0.02802347  0.60807769     0.19900
C668        C  0.08916102  0.02822063  0.64373666     0.24900
C669        C  0.07228669  0.50067680  0.67026399    -0.23100
C670        C  0.07212790  0.47219924  0.65919274     0.19800
F671        F  0.05408209  0.44404375  0.68214328    -0.13100
F672        F  0.08448688  0.44251086  0.61144890    -0.15400
F673        F  0.08870302  0.05591025  0.65132997    -0.15400
F674        F  0.12091292  0.05492313  0.58193844    -0.13100
C675        C  0.11931746  0.01463367  0.90402394     0.24900
C676        C  0.10312217  0.49251347  0.93803701    -0.23200
C677        C  0.07016062  0.46882288  0.93410882     0.19900
C678        C  0.05292860  0.46839263  0.89776757     0.24900
C679        C  0.06824978  0.49182943  0.86430764    -0.23100
C680        C  0.10202592  0.01448098  0.86764031     0.19800
F681        F  0.11810291  0.03679193  0.83566206    -0.13100
F682        F  0.15130359  0.03731166  0.90627834    -0.15400
F683        F  0.02087203  0.44555618  0.89626869    -0.15400
F684        F  0.05443409  0.44610287  0.96581108    -0.13100
C685        C  0.47413383  0.56972872  0.87743649     0.24900
C686        C  0.50374932  0.57387079  0.86155574    -0.23200
C687        C  0.03286678  0.59564573  0.88189787     0.19900
C688        C  0.03223633  0.61227972  0.91775895     0.24900
C689        C  0.50264454  0.60767715  0.93374978    -0.23100
C690        C  0.47361535  0.58616416  0.91360271     0.19800
F691        F  0.44457048  0.57932248  0.93065302    -0.13100
F692        F  0.44543772  0.54835629  0.85956398    -0.15400
F693        F  0.06042494  0.63186830  0.93803471    -0.15400
F694        F  0.06196829  0.60055087  0.86752746    -0.13100
C695        C  0.03094158  0.61874607  0.61936848     0.24900
C696        C  0.50340069  0.60912616  0.59331569    -0.23200
C697        C  0.47499217  0.57933721  0.60410146     0.19900
C698        C  0.47335453  0.56108466  0.64059778     0.24900
C699        C  0.50039538  0.57137718  0.66732858    -0.23100
C700        C  0.02924285  0.60035158  0.65599980     0.19800
F701        F  0.05651721  0.61047915  0.67941918    -0.13100
F702        F  0.06045175  0.64440757  0.60852971    -0.15400
F703        F  0.44511505  0.53290981  0.64914583    -0.15400
F704        F  0.44862271  0.56716643  0.57849010    -0.13100
C705        C  0.40213794  0.88112428  0.91651626     0.24900
C706        C  0.39101818  0.89555141  0.94543980    -0.23200
C707        C  0.39565343  0.92645171  0.93563085     0.19900
C708        C  0.41202744  0.94323918  0.89811881     0.24900
C709        C  0.42466622  0.92964997  0.86959277    -0.23100
C710        C  0.41902763  0.89806045  0.87901921     0.19800
F711        F  0.43037348  0.88371465  0.85257148    -0.13100
F712        F  0.39788439  0.85120908  0.92550062    -0.15400
F713        F  0.41579340  0.97308821  0.89029504    -0.15400
F714        F  0.38422063  0.94046174  0.96257190    -0.13100
C715        C  0.41678532  0.89483432  0.61206996     0.24900
C716        C  0.38577994  0.89119977  0.60525853    -0.23200
C717        C  0.37429126  0.90514612  0.63505218     0.19900
C718        C  0.39326256  0.92198345  0.66997585     0.24900
C719        C  0.42428839  0.92574299  0.67598080    -0.23100
C720        C  0.43554074  0.91155624  0.64673269     0.19800
F721        F  0.46520472  0.91429146  0.65083126    -0.13100
F722        F  0.42962179  0.88275400  0.58412586    -0.15400
F723        F  0.38132522  0.93525293  0.69736231    -0.15400
F724        F  0.34560950  0.90420456  0.63036810    -0.13100
C725        C  0.09965998  0.74745519  0.44549063     0.24900
C726        C  0.10716828  0.77265560  0.47380519    -0.23200
C727        C  0.08684989  0.76651800  0.50977578     0.19900
C728        C  0.06078553  0.73528718  0.51868889     0.24900
C729        C  0.05437662  0.70969031  0.49166463    -0.23100
C730        C  0.07315807  0.71624510  0.45410213     0.19800
F731        F  0.06695635  0.69210276  0.42695660    -0.13100
F732        F  0.11845322  0.75294366  0.91007471    -0.15400
F733        F  0.04222197  0.72981786  0.55436850    -0.15400
F734        F  0.09342663  0.79030348  0.53780980    -0.13100
C735        C  0.13279700  0.91417743  0.52275199     0.24900
C736        C  0.15466712  0.94567799  0.50641428    -0.23200
C737        C  0.18084793  0.95022049  0.98026288     0.19900
C738        C  0.18442455  0.92363769  0.96988057     0.24900
C739        C  0.16237236  0.89219229  0.48642939    -0.23100
C740        C  0.13726159  0.88823549  0.51415984     0.19800
F741        F  0.11698864  0.85914252  0.53387964    -0.13100
F742        F  0.10616793  0.90789268  0.54629959    -0.15400
F743        F  0.20911759  0.92864005  0.94315869    -0.15400
F744        F  0.20330895  0.98032794  0.96529648    -0.13100
C745        C  0.25537558  0.85700568  0.95641493     0.24900
C746        C  0.22779774  0.83678397  0.48202357    -0.23200
C747        C  0.23073538  0.81932180  0.51694776     0.19900
C748        C  0.26105761  0.82336212  0.52740392     0.24900
C749        C  0.28878360  0.84451207  0.50276977    -0.23100
C750        C  0.28564353  0.86060392  0.96651941     0.19800
F751        F  0.31220182  0.88123437  0.94240691    -0.13100
F752        F  0.25306612  0.87376781  0.92220288    -0.15400
F753        F  0.26356693  0.80729148  0.56229255    -0.15400
F754        F  0.20458029  0.79977273  0.54239956    -0.13100
C755        C  0.24425401  0.61165299  0.46940604     0.24900
C756        C  0.27054023  0.61115034  0.48951090    -0.23200
C757        C  0.26437757  0.58295498  0.51310476     0.19900
C758        C  0.23282477  0.55632697  0.51694069     0.24900
C759        C  0.20672530  0.55749450  0.49820060    -0.23100
C760        C  0.21256209  0.58522694  0.47433019     0.19800
F761        F  0.18745339  0.58729329  0.45730422    -0.13100
F762        F  0.24911305  0.63789397  0.44541818    -0.15400
F763        F  0.22741183  0.52991634  0.54098723    -0.15400
F764        F  0.28844580  0.58176069  0.03477115    -0.13100
C765        C  0.32230649  0.74122393  0.98013137     0.24900
C766        C  0.34344601  0.73216873  0.49927025    -0.23200
C767        C  0.36859638  0.75471872  0.52501340     0.19900
C768        C  0.37282745  0.78553344  0.53075202     0.24900
C769        C  0.35073885  0.79407690  0.51332152    -0.23100
C770        C  0.32540494  0.77144728  0.98790596     0.19800
F771        F  0.30279178  0.77785360  0.97158823    -0.13100
F772        F  0.29864731  0.72091551  0.95348205    -0.15400
F773        F  0.39900799  0.80706889  0.55311265    -0.15400
F774        F  0.38877344  0.74682427  0.54584684    -0.12900
C775        C  0.41016656  0.67151539  0.52600040     0.24900
C776        C  0.39156966  0.66092555  0.48877567    -0.23200
C777        C  0.40029916  0.64628212  0.95703862     0.19900
C778        C  0.42728156  0.64225039  0.96254539     0.24900
C779        C  0.44502979  0.65156148  0.50064078    -0.23100
C780        C  0.43655317  0.66682681  0.53192792     0.19800
F781        F  0.45401950  0.67747902  0.56825578    -0.13100
F782        F  0.40206989  0.68548806  0.55738559    -0.15400
F783        F  0.43545152  0.62853373  0.93108893    -0.15400
F784        F  0.38272796  0.63596069  0.92076924    -0.13100
C785        C  0.86283002  0.16483102  0.48303119     0.04500
C786        C  0.86636459  0.19572882  0.98550909    -0.11700
C787        C  0.83918630  0.19944483  0.99117050     0.02000
C788        C  0.80806624  0.17152791  0.99277759    -0.10200
C789        C  0.80383832  0.14043615  0.48697537     0.04500
C790        C  0.83156051  0.13741876  0.48184291    -0.09600
H791        H  0.89061385  0.21682834  0.98424865     0.10100
H792        H  0.78715815  0.17388659  0.00001127     0.07600
H793        H  0.82899373  0.11367242  0.47854580     0.07400
C794        C  0.66503834  0.36293510  0.97688952     0.04500
C795        C  0.69509436  0.36405024  0.97836124    -0.11700
C796        C  0.69663634  0.33546472  0.97534858     0.02000
C797        C  0.66779679  0.30551904  0.97142091    -0.10200
C798        C  0.63763388  0.30398511  0.97011162     0.04500
C799        C  0.63663343  0.33281781  0.97074018    -0.09600
H800        H  0.71709611  0.38671097  0.98475880     0.10100
H801        H  0.66871404  0.28326081  0.97173110     0.07600
H802        H  0.61324418  0.33140355  0.96893523     0.07400
C803        C  0.86869512  0.37444078  0.06345009     0.87800
C804        C  0.83389019  0.36738171  0.05470455    -0.52400
C805        C  0.82187249  0.35281977  0.01657069     0.10800
C806        C  0.84539536  0.34629190  0.49066441     0.21700
C807        C  0.86535431  0.34082950  0.06002823    -0.53100
C808        C  0.85410231  0.32621076  0.02174447     0.10900
C809        C  0.88854901  0.39404144  0.02378058    -0.52700
C810        C  0.87646233  0.37955030  0.48592987     0.11400
H811        H  0.81905327  0.37216451  0.07607188     0.16000
H812        H  0.83581733  0.33518755  0.45936744     0.01700
H813        H  0.87084880  0.32941626  0.08659521     0.16300
H814        H  0.91039067  0.41776884  0.02555088     0.16000
C815        C  0.00270647  0.12661489  0.05239751     0.87800
C816        C  0.53103137  0.16173279  0.04422525    -0.52400
C817        C  0.52984396  0.17527490  0.00564496     0.10800
C818        C  0.00020250  0.15286817  0.47877319     0.21700
C819        C  0.97252357  0.13025503  0.04722732    -0.53100
C820        C  0.97102867  0.14379326  0.00883707     0.10900
C821        C  0.00295103  0.10801504  0.01325630    -0.52700
C822        C  0.00164294  0.12153143  0.47507587     0.11400
H823        H  0.54958697  0.17589426  0.06703321     0.16000
H824        H  0.49922854  0.16397749  0.44758051     0.01700
H825        H  0.95418058  0.12337130  0.07224210     0.16300
H826        H  0.00417019  0.08587924  0.01555992     0.16000
C827        C  0.62646731  0.00034336  0.05738348     0.87800
C828        C  0.63590956  0.47407708  0.05451680    -0.52400
C829        C  0.64890636  0.47280199  0.01607058     0.10800
C830        C  0.65405771  0.00037984  0.48473408     0.21700
C831        C  0.65896113  0.03167016  0.04779381    -0.53100
C832        C  0.67333215  0.03178276  0.00992631     0.10900
C833        C  0.60564231  0.49593048  0.01748684    -0.52700
C834        C  0.61991533  0.99596452  0.47990987     0.11400
H835        H  0.63411729  0.45854199  0.08144723     0.16000
H836        H  0.66554604  0.00049296  0.45380961     0.01700
H837        H  0.67064759  0.05134944  0.07002651     0.16300
H838        H  0.58177318  0.49358151  0.01961687     0.16000
O839        O  0.97364242  0.44950778  0.21413336    -0.84000
O840        O  0.53811981  0.47642996  0.23276449    -0.81000
C841        C  0.55194429  0.00028586  0.20730310     0.99500
O842        O  0.54940697  0.02492877  0.21283046    -0.81100
O843        O  0.52147729  0.06074815  0.23187454    -0.83700
C844        C  0.49807989  0.05031247  0.20585559     1.04000
O845        O  0.97327286  0.02271198  0.21240514    -0.76500
O846        O  0.93611435  0.45936228  0.23630494    -0.76700
C847        C  0.94584903  0.44616468  0.21010238     1.03900
O848        O  0.95596697  0.43772527  0.30437332    -0.84000
O849        O  0.52058751  0.46975361  0.32255904    -0.81100
C850        C  0.54905492  0.99310017  0.32810147     0.99500
O851        O  0.56054368  0.01745813  0.30229278    -0.81100
O852        O  0.52718950  0.04865501  0.32196768    -0.83700
C853        C  0.00380036  0.05363433  0.32631068     1.04000
O854        O  0.98053464  0.04170651  0.30028939    -0.76500
O855        O  0.94951144  0.47790707  0.32394973    -0.76700
C856        C  0.94438405  0.44950609  0.33036292     1.03900
Cr857      Cr  0.99721811  0.46116097  0.26835982     1.93700
Cr858      Cr  0.53684802  0.03521129  0.26742406     1.93200
Cr859      Cr  0.96282076  0.50069057  0.26790372     1.39100
O860        O  0.99890511  0.99862498  0.26853594    -1.21700
C861        C  0.58958009  0.97166217  0.12390427     0.24900
C862        C  0.60859448  0.00022946  0.09837333    -0.23200
C863        C  0.60765842  0.52854921  0.10827703     0.19900
C864        C  0.59023185  0.52882171  0.14409474     0.24900
C865        C  0.57177676  0.00025148  0.17041042    -0.23100
C866        C  0.57220287  0.97198209  0.15985546     0.19800
F867        F  0.55457257  0.94393278  0.18317535    -0.13100
F868        F  0.58528774  0.94245810  0.11285747    -0.15400
F869        F  0.59050650  0.55678911  0.15234956    -0.15400
F870        F  0.62224060  0.55566584  0.08256674    -0.13100
C871        C  0.61910306  0.51441103  0.40352604     0.24900
C872        C  0.60337872  0.99261851  0.43844784    -0.23200
C873        C  0.57048398  0.96880192  0.43440999     0.19900
C874        C  0.55324441  0.96835884  0.39808538     0.24900
C875        C  0.56849186  0.99188726  0.36469625    -0.23100
C876        C  0.60182421  0.51427673  0.36715763     0.19800
F877        F  0.61796431  0.53647396  0.33508545    -0.13100
F878        F  0.65112895  0.53698430  0.40568410    -0.15400
F879        F  0.52123246  0.94539737  0.39654648    -0.15400
F880        F  0.55482103  0.94596204  0.46600285    -0.13100
C881        C  0.97387410  0.06878440  0.37834604     0.24900
C882        C  0.00354124  0.07340073  0.36197311    -0.23200
C883        C  0.53270932  0.09554183  0.38190030     0.19900
C884        C  0.53208094  0.11209537  0.41786148     0.24900
C885        C  0.00243048  0.10701888  0.43434574    -0.23100
C886        C  0.97335684  0.08506247  0.41465831     0.19800
F887        F  0.94430911  0.07762373  0.43231099    -0.13100
F888        F  0.94515567  0.04708682  0.36082195    -0.15400
F889        F  0.56033317  0.13199603  0.43779348    -0.15400
F890        F  0.56185223  0.10088123  0.36701579    -0.13100
C891        C  0.53013343  0.11740350  0.11909311     0.24900
C892        C  0.00225467  0.10840214  0.09397307    -0.23200
C893        C  0.97358735  0.07903185  0.10546989     0.19900
C894        C  0.97207493  0.06075659  0.14194262     0.24900
C895        C  0.99947153  0.07058545  0.16787414    -0.23100
C896        C  0.52854024  0.09905816  0.15572448     0.19800
F897        F  0.55613731  0.10863305  0.17822421    -0.13100
F898        F  0.55982530  0.14231148  0.10716151    -0.15400
F899        F  0.94361178  0.03300870  0.15125895    -0.15400
F900        F  0.94688005  0.06720030  0.08052266    -0.13100
C901        C  0.90145381  0.38116215  0.41456813     0.24900
C902        C  0.89132048  0.39589518  0.44438240    -0.23200
C903        C  0.89668978  0.42718194  0.43536618     0.19900
C904        C  0.91296125  0.44407175  0.39786398     0.24900
C905        C  0.92467139  0.43015027  0.36848747    -0.23100
C906        C  0.91820365  0.39817539  0.37705182     0.19800
F907        F  0.92858067  0.38349265  0.34969785    -0.13100
F908        F  0.89637503  0.35083064  0.42265350    -0.15400
F909        F  0.91761941  0.47436138  0.39094057    -0.15400
F910        F  0.88607375  0.44147543  0.46306797    -0.13100
C911        C  0.91660635  0.39395400  0.11243198     0.24900
C912        C  0.88631632  0.39160991  0.10416114    -0.23200
C913        C  0.87576768  0.40758133  0.13197209     0.19900
C914        C  0.89462826  0.42456360  0.16690176     0.24900
C915        C  0.92470082  0.42656047  0.17478733    -0.23100
C916        C  0.93518775  0.41069536  0.14722402     0.19800
F917        F  0.96394405  0.41174085  0.15314849    -0.13100
F918        F  0.92900087  0.38066185  0.08577475    -0.15400
F919        F  0.88372001  0.43996042  0.19216425    -0.15400
F920        F  0.84847908  0.40895196  0.12476798    -0.13100
C921        C  0.59972434  0.24703783  0.94681435     0.24900
C922        C  0.60719317  0.27217499  0.97521786    -0.23200
C923        C  0.58682936  0.26594099  0.01116691     0.19900
C924        C  0.56074058  0.23467750  0.01994359     0.24900
C925        C  0.55431797  0.20914270  0.99276741    -0.23100
C926        C  0.57319070  0.21581521  0.95525956     0.19800
F927        F  0.56701420  0.19178539  0.92794114    -0.13100
F928        F  0.61856253  0.25261743  0.41142651    -0.15400
F929        F  0.54211194  0.22914082  0.05557404    -0.15400
F930        F  0.59334094  0.28968086  0.03925375    -0.13100
C931        C  0.63245949  0.41402214  0.02243873     0.24900
C932        C  0.65441482  0.44547762  0.00607917    -0.23200
C933        C  0.68074475  0.44995074  0.48030505     0.19900
C934        C  0.68443852  0.42333966  0.47042703     0.24900
C935        C  0.66232661  0.39192320  0.98708273    -0.23100
C936        C  0.63705092  0.38807275  0.01442526     0.19800
F937        F  0.61674995  0.35909035  0.03438047    -0.13100
F938        F  0.60564366  0.40780695  0.04548947    -0.15400
F939        F  0.70931601  0.42830089  0.44409575    -0.15400
F940        F  0.70322452  0.48001518  0.46522027    -0.13100
C941        C  0.75524285  0.35665356  0.45614278     0.24900
C942        C  0.72792035  0.33655752  0.98222386    -0.23200
C943        C  0.73121411  0.31928247  0.01709178     0.19900
C944        C  0.76167014  0.32351111  0.02713814     0.24900
C945        C  0.78917580  0.34467038  0.00215869    -0.23100
C946        C  0.78565782  0.36045956  0.46585795     0.19800
F947        F  0.81198717  0.38099784  0.44131302    -0.13100
F948        F  0.75253797  0.37308120  0.42182819    -0.15400
F949        F  0.76453390  0.30762582  0.06197953    -0.15400
F950        F  0.70528444  0.29973444  0.04288096    -0.13100
C951        C  0.74413830  0.11163444  0.96945271     0.24900
C952        C  0.77056526  0.11118074  0.98921447    -0.23200
C953        C  0.76451678  0.08309110  0.01299610     0.19900
C954        C  0.73294854  0.05653531  0.01733775     0.24900
C955        C  0.70673820  0.05768912  0.99893992    -0.23100
C956        C  0.71245203  0.08530979  0.97492081     0.19800
F957        F  0.68724337  0.08735315  0.95821111    -0.13100
F958        F  0.74885835  0.13772530  0.94523146    -0.15400
F959        F  0.72766239  0.03019280  0.04144352    -0.15400
F960        F  0.78872839  0.08193103  0.53431875    -0.13100
C961        C  0.82225177  0.24132674  0.47891002     0.24900
C962        C  0.84342662  0.23222530  0.99783338    -0.23200
C963        C  0.86857031  0.25467051  0.02365526     0.19900
C964        C  0.87280707  0.28545552  0.02965924     0.24900
C965        C  0.85080420  0.29413066  0.01226695    -0.23100
C966        C  0.82543752  0.27158325  0.48679975     0.19800
F967        F  0.80288313  0.27810435  0.47055006    -0.13100
F968        F  0.79846789  0.22102382  0.45239598    -0.15400
F969        F  0.89892861  0.30683859  0.05223417    -0.15400
F970        F  0.88873843  0.24668214  0.04432088    -0.12900
C971        C  0.91139254  0.17326220  0.02353065     0.24900
C972        C  0.89175284  0.16112697  0.98735183    -0.23200
C973        C  0.89943998  0.14482286  0.45680047     0.19900
C974        C  0.92632562  0.14065048  0.46248864     0.24900
C975        C  0.94499660  0.15144026  0.99969153    -0.23100
C976        C  0.93763521  0.16835897  0.02971008     0.19800
F977        F  0.95598493  0.18026847  0.06511787    -0.13100
F978        F  0.90438205  0.18883761  0.05384690    -0.15400
F979        F  0.93348652  0.12533547  0.43216912    -0.15400
F980        F  0.88091867  0.13295854  0.42154223    -0.13100
C981        C  0.86282919  0.16483010  0.98303419     0.04500
C982        C  0.86636607  0.19572999  0.48550596    -0.11700
C983        C  0.83918818  0.19944662  0.49116777     0.02000
C984        C  0.80806783  0.17152996  0.49277509    -0.10200
C985        C  0.80383724  0.14043428  0.98697806     0.04500
C986        C  0.83155982  0.13741749  0.98184577    -0.09600
H987        H  0.89061553  0.21682910  0.48424515     0.10100
H988        H  0.78716000  0.17388887  0.50000901     0.07600
H989        H  0.82899345  0.11367133  0.97854845     0.07400
C990        C  0.66504031  0.36293792  0.47689658     0.04500
C991        C  0.69509636  0.36405306  0.47836892    -0.11700
C992        C  0.69663821  0.33546732  0.47535814     0.02000
C993        C  0.66779867  0.30552152  0.47143173    -0.10200
C994        C  0.63763575  0.30398753  0.47012142     0.04500
C995        C  0.63663529  0.33282031  0.47074856    -0.09600
H996        H  0.71709817  0.38671393  0.48476519     0.10100
H997        H  0.66871596  0.28326331  0.47174300     0.07600
H998        H  0.61324604  0.33140596  0.46894275     0.07400
C999        C  0.86869860  0.37444166  0.56345148     0.87800
C1000       C  0.83389358  0.36738257  0.55470769    -0.52400
C1001       C  0.82187526  0.35282167  0.51657354     0.10800
C1002       C  0.84539301  0.34628961  0.99066332     0.21700
C1003       C  0.86535732  0.34083025  0.56002814    -0.53100
C1004       C  0.85410502  0.32621246  0.52174393     0.10900
C1005       C  0.88855246  0.39404270  0.52378231    -0.52700
C1006       C  0.87645973  0.37954805  0.98592863     0.11400
H1007       H  0.81905655  0.37216310  0.57607814     0.16000
H1008       H  0.83581578  0.33518498  0.95936635     0.01700
H1009       H  0.87085149  0.32941601  0.58659409     0.16300
H1010       H  0.91039478  0.41776955  0.52555328     0.16000
C1011       C  0.00270405  0.12661229  0.55239783     0.87800
C1012       C  0.53103257  0.16173222  0.54422769    -0.52400
C1013       C  0.52984586  0.17527575  0.50564824     0.10800
C1014       C  0.00020165  0.15286730  0.97877138     0.21700
C1015       C  0.97252179  0.13025342  0.54722697    -0.53100
C1016       C  0.97102848  0.14379331  0.50883736     0.10900
C1017       C  0.00294949  0.10801380  0.51325580    -0.52700
C1018       C  0.00164269  0.12153085  0.97507575     0.11400
H1019       H  0.54958755  0.17589261  0.56703703     0.16000
H1020       H  0.49922574  0.16397472  0.94757811     0.01700
H1021       H  0.95417826  0.12336965  0.57224095     0.16300
H1022       H  0.00416771  0.08587743  0.51555842     0.16000
C1023       C  0.62646934  0.00034521  0.55738308     0.87800
C1024       C  0.63591276  0.47408296  0.55451649    -0.52400
C1025       C  0.64890913  0.47280679  0.51607040     0.10800
C1026       C  0.65405673  0.00037825  0.98473541     0.21700
C1027       C  0.65896253  0.03167240  0.54779210    -0.53100
C1028       C  0.67333304  0.03178490  0.50992411     0.10900
C1029       C  0.60564373  0.49593373  0.51748515    -0.52700
C1030       C  0.61991479  0.99596378  0.97991008     0.11400
H1031       H  0.63412019  0.45854831  0.58144785     0.16000
H1032       H  0.66554545  0.00049154  0.95381119     0.01700
H1033       H  0.67064899  0.05135183  0.57002430     0.16300
H1034       H  0.58177425  0.49358406  0.51961527     0.16000
O1035       O  0.97364303  0.44951122  0.71413487    -0.84000
O1036       O  0.53812236  0.47643400  0.73276375    -0.81000
C1037       C  0.55194442  0.00028580  0.70730236     0.99500
O1038       O  0.54940765  0.02492892  0.71283058    -0.81100
O1039       O  0.52147775  0.06074787  0.73187477    -0.83700
C1040       C  0.49808056  0.05031176  0.70585546     1.04000
O1041       O  0.97327089  0.02271061  0.71240577    -0.76500
O1042       O  0.93611369  0.45936347  0.73630770    -0.76700
C1043       C  0.94584906  0.44616674  0.71010470     1.03900
O1044       O  0.95596748  0.43772696  0.80437464    -0.84000
O1045       O  0.52058989  0.46975632  0.82255831    -0.81100
C1046       C  0.54905582  0.99309957  0.82810048     0.99500
O1047       O  0.56054439  0.01745796  0.80229255    -0.81100
O1048       O  0.52719031  0.04865487  0.82196818    -0.83700
C1049       C  0.00379981  0.05363369  0.82631059     1.04000
O1050       O  0.98053407  0.04170619  0.80028938    -0.76500
O1051       O  0.94951071  0.47790763  0.82395286    -0.76700
C1052       C  0.94438371  0.44950665  0.83036476     1.03900
Cr1053     Cr  0.99721856  0.46116402  0.76836117     1.93700
Cr1054     Cr  0.53684859  0.03521117  0.76742431     1.93200
Cr1055     Cr  0.96281940  0.50069177  0.76790706     1.39100
O1056       O  0.99890375  0.99862414  0.76853590    -1.21700
C1057       C  0.58958368  0.97166408  0.62390541     0.24900
C1058       C  0.60859690  0.00023121  0.59837358    -0.23200
C1059       C  0.60766254  0.52855522  0.60827774     0.19900
C1060       C  0.59023587  0.52882723  0.64409579     0.24900
C1061       C  0.57177776  0.00025211  0.67041006    -0.23100
C1062       C  0.57220587  0.97198353  0.65985627     0.19800
F1063       F  0.55457692  0.94393443  0.68317701    -0.13100
F1064       F  0.58529281  0.94246037  0.61285974    -0.15400
F1065       F  0.59051226  0.55679512  0.65235310    -0.15400
F1066       F  0.62224625  0.55567290  0.58256954    -0.13100
C1067       C  0.61910377  0.51441075  0.90352783     0.24900
C1068       C  0.60337883  0.99261784  0.93844754    -0.23200
C1069       C  0.57048437  0.96880078  0.93440877     0.19900
C1070       C  0.55324524  0.96835746  0.89808363     0.24900
C1071       C  0.56849279  0.99188632  0.86469499    -0.23100
C1072       C  0.60182571  0.51427760  0.86715905     0.19800
F1073       F  0.61796682  0.53647448  0.83508687    -0.13100
F1074       F  0.65113002  0.53698271  0.90568637    -0.15400
F1075       F  0.52123353  0.94539539  0.89654388    -0.15400
F1076       F  0.55482119  0.94596068  0.96600130    -0.13100
C1077       C  0.97387343  0.06878205  0.87834771     0.24900
C1078       C  0.00354071  0.07339972  0.86197339    -0.23200
C1079       C  0.53270921  0.09554191  0.88190088     0.19900
C1080       C  0.53208002  0.11209474  0.91786240     0.24900
C1081       C  0.00242998  0.10701748  0.93434631    -0.23100
C1082       C  0.97335625  0.08506006  0.91466003     0.19800
F1083       F  0.94430865  0.07762051  0.93231385    -0.13100
F1084       F  0.94515493  0.04708327  0.86082487    -0.15400
F1085       F  0.56033196  0.13199626  0.93779441    -0.15400
F1086       F  0.56185255  0.10088304  0.86701552    -0.13100
C1087       C  0.53013561  0.11739937  0.61908862     0.24900
C1088       C  0.00225198  0.10839892  0.59397253    -0.23200
C1089       C  0.97358261  0.07903221  0.60547489     0.19900
C1090       C  0.97207061  0.06075770  0.64194814     0.24900
C1091       C  0.99946979  0.07058301  0.66787339    -0.23100
C1092       C  0.52854247  0.09905431  0.65572022     0.19800
F1093       F  0.55614054  0.10862658  0.67821658    -0.13100
F1094       F  0.55982805  0.14230448  0.60715288    -0.15400
F1095       F  0.94360525  0.03301397  0.65127115    -0.15400
F1096       F  0.94687288  0.06720286  0.58053256    -0.13100
C1097       C  0.90145982  0.38116348  0.91457267     0.24900
C1098       C  0.89131795  0.39589263  0.94438133    -0.23200
C1099       C  0.89667960  0.42717599  0.93536060     0.19900
C1100       C  0.91295143  0.44406643  0.89785889     0.24900
C1101       C  0.92467027  0.43014933  0.86848810    -0.23100
C1102       C  0.91821042  0.39817760  0.87705717     0.19800
F1103       F  0.92859650  0.38349925  0.84970917    -0.13100
F1104       F  0.89638888  0.35083543  0.92266335    -0.15400
F1105       F  0.91760094  0.47435227  0.89093006    -0.15400
F1106       F  0.88605607  0.44146558  0.96305783    -0.13100
C1107       C  0.91660491  0.39394808  0.61244196     0.24900
C1108       C  0.88631884  0.39161062  0.60416294    -0.23200
C1109       C  0.87577447  0.40759125  0.63196406     0.19900
C1110       C  0.89463377  0.42457360  0.66689447     0.24900
C1111       C  0.92470122  0.42656191  0.67478996    -0.23100
C1112       C  0.93518452  0.41068872  0.64723557     0.19800
F1113       F  0.96393568  0.41172543  0.65317051    -0.13100
F1114       F  0.92899785  0.38065062  0.58579132    -0.15400
F1115       F  0.88373056  0.43998031  0.69214639    -0.15400
F1116       F  0.84849321  0.40897295  0.62474688    -0.13100
C1117       C  0.59972709  0.24704071  0.44682191     0.24900
C1118       C  0.60719501  0.27217719  0.47522623    -0.23200
C1119       C  0.58683033  0.26594219  0.51117458     0.19900
C1120       C  0.56074174  0.23467821  0.51995001     0.24900
C1121       C  0.55432005  0.20914407  0.49277288    -0.23100
C1122       C  0.57319368  0.21581771  0.45526570     0.19800
F1123       F  0.56701836  0.19178858  0.42794659    -0.13100
F1124       F  0.61855917  0.25261352  0.91141859    -0.15400
F1125       F  0.54211238  0.22914048  0.55558002    -0.15400
F1126       F  0.59334085  0.28968162  0.53926175    -0.13100
C1127       C  0.63246174  0.41402688  0.52244074     0.24900
C1128       C  0.65441729  0.44548196  0.50608020    -0.23200
C1129       C  0.68074237  0.44994729  0.98030354     0.19900
C1130       C  0.68443623  0.42333665  0.97042354     0.24900
C1131       C  0.66232876  0.39192661  0.48708748    -0.23100
C1132       C  0.63705298  0.38807708  0.51442909     0.19800
F1133       F  0.61675166  0.35909515  0.53438509    -0.13100
F1134       F  0.60564587  0.40781251  0.54549073    -0.15400
F1135       F  0.70931363  0.42829866  0.94409155    -0.15400
F1136       F  0.70322217  0.48001217  0.96522019    -0.13100
C1137       C  0.75524225  0.35665396  0.95613756     0.24900
C1138       C  0.72792228  0.33656016  0.48223277    -0.23200
C1139       C  0.73121726  0.31928751  0.51710263     0.19900
C1140       C  0.76167341  0.32351569  0.52714711     0.24900
C1141       C  0.78917794  0.34467200  0.50216376    -0.23100
C1142       C  0.78565715  0.36046059  0.96585471     0.19800
F1143       F  0.81198762  0.38100172  0.94131344    -0.13100
F1144       F  0.75253870  0.37308405  0.92182487    -0.15400
F1145       F  0.76453853  0.30763305  0.56199050    -0.15400
F1146       F  0.70528881  0.29974242  0.54289532    -0.13100
C1147       C  0.74413946  0.11163634  0.46944939     0.24900
C1148       C  0.77056622  0.11118291  0.48921215    -0.23200
C1149       C  0.76451753  0.08309379  0.51299513     0.19900
C1150       C  0.73294933  0.05653802  0.51733677     0.24900
C1151       C  0.70673912  0.05769127  0.49893745    -0.23100
C1152       C  0.71245316  0.08531159  0.47491715     0.19800
F1153       F  0.68724473  0.08735463  0.45820600    -0.13100
F1154       F  0.74885974  0.13772706  0.44522760    -0.15400
F1155       F  0.72766309  0.03019603  0.54144380    -0.15400
F1156       F  0.78872783  0.08192780  0.03431847    -0.13100
C1157       C  0.82225013  0.24132487  0.97891077     0.24900
C1158       C  0.84342917  0.23222745  0.49783054    -0.23200
C1159       C  0.86857439  0.25467332  0.52365018     0.19900
C1160       C  0.87281133  0.28545841  0.52965422     0.24900
C1161       C  0.85080721  0.29413285  0.51226478    -0.23100
C1162       C  0.82543561  0.27158133  0.98680011     0.19800
F1163       F  0.80288193  0.27810258  0.97054814    -0.13100
F1164       F  0.79846748  0.22102224  0.95239508    -0.15400
F1165       F  0.89893399  0.30684218  0.55222689    -0.15400
F1166       F  0.88874358  0.24668552  0.54431407    -0.12900
C1167       C  0.91139013  0.17325939  0.52353169     0.24900
C1168       C  0.89175312  0.16112727  0.48735015    -0.23200
C1169       C  0.89943746  0.14481975  0.95680371     0.19900
C1170       C  0.92632303  0.14064714  0.96249118     0.24900
C1171       C  0.94499675  0.15144070  0.49969133    -0.23100
C1172       C  0.93763269  0.16835616  0.52971192     0.19800
F1173       F  0.95597973  0.18026267  0.56512244    -0.13100
F1174       F  0.90437716  0.18883186  0.55384950    -0.15400
F1175       F  0.93348156  0.12532916  0.93217336    -0.15400
F1176       F  0.88091388  0.13295273  0.92154781    -0.13100
C1177       C  0.86276131  0.66472899  0.48439061     0.04500
C1178       C  0.86637163  0.69561693  0.98733616    -0.11700
C1179       C  0.83919605  0.69936761  0.99273751     0.02000
C1180       C  0.80803527  0.67146756  0.99388493    -0.10200
C1181       C  0.80380501  0.64040699  0.48775727     0.04500
C1182       C  0.83151640  0.63737787  0.48270990    -0.09600
H1183       H  0.89066150  0.71665516  0.98647451     0.10100
H1184       H  0.78708787  0.67380146  0.00093789     0.07600
H1185       H  0.82895730  0.61365900  0.47908334     0.07400
C1186       C  0.66508179  0.86329890  0.97585565     0.04500
C1187       C  0.69509822  0.86436900  0.97760285    -0.11700
C1188       C  0.69660868  0.83577368  0.97461712     0.02000
C1189       C  0.66777002  0.80587604  0.97031333    -0.10200
C1190       C  0.63764427  0.80441379  0.96868889     0.04500
C1191       C  0.63668946  0.83326554  0.96936655    -0.09600
H1192       H  0.71706195  0.88699078  0.98428865     0.10100
H1193       H  0.66863612  0.78359051  0.97067589     0.07600
H1194       H  0.61333096  0.83192156  0.96752318     0.07400
C1195       C  0.86810458  0.87419064  0.06449774     0.87800
C1196       C  0.83326419  0.86701418  0.05564680    -0.52400
C1197       C  0.82133419  0.85239550  0.01751732     0.10800
C1198       C  0.84499458  0.84601219  0.49167140     0.21700
C1199       C  0.86505322  0.84072205  0.06103143    -0.53100
C1200       C  0.85385212  0.82607127  0.02277178     0.10900
C1201       C  0.88788101  0.89392613  0.02480015    -0.52700
C1202       C  0.87595925  0.87934264  0.48696015     0.11400
H1203       H  0.81847689  0.87216528  0.07654359     0.16000
H1204       H  0.83551798  0.83490104  0.46034806     0.01700
H1205       H  0.87078174  0.82946289  0.08755394     0.16300
H1206       H  0.90962186  0.91773210  0.02654727     0.16000
C1207       C  0.00366728  0.62734675  0.05188171     0.87800
C1208       C  0.53182496  0.66249002  0.04333184    -0.52400
C1209       C  0.53012841  0.67587163  0.00488180     0.10800
C1210       C  0.00024797  0.65332629  0.47850998     0.21700
C1211       C  0.97332712  0.63074802  0.04735887    -0.53100
C1212       C  0.97136069  0.64421319  0.00916641     0.10900
C1213       C  0.00364800  0.60873117  0.01261541    -0.52700
C1214       C  0.00183586  0.62208310  0.47456004     0.11400
H1215       H  0.55069169  0.67680223  0.06567127     0.16000
H1216       H  0.49896860  0.66437144  0.44742278     0.01700
H1217       H  0.95513379  0.62357667  0.07264974     0.16300
H1218       H  0.00511605  0.58672657  0.01473791     0.16000
C1219       C  0.62650179  0.50045750  0.05686695     0.87800
C1220       C  0.63603620  0.97408483  0.05499303    -0.52400
C1221       C  0.64911947  0.97294215  0.01656276     0.10800
C1222       C  0.65386153  0.50019949  0.48414378     0.21700
C1223       C  0.65903922  0.53167590  0.04709064    -0.53100
C1224       C  0.67327634  0.53166560  0.00918009     0.10900
C1225       C  0.60569160  0.99584092  0.01791286    -0.52700
C1226       C  0.61973411  0.49588047  0.47944146     0.11400
H1227       H  0.63441124  0.95860966  0.08189357     0.16000
H1228       H  0.66526734  0.50017659  0.45320833     0.01700
H1229       H  0.67092261  0.55135568  0.06928257     0.16300
H1230       H  0.58177088  0.99337985  0.01995692     0.16000
O1231       O  0.97331746  0.94873599  0.21513041    -0.84000
O1232       O  0.53791073  0.97604440  0.23318060    -0.81000
C1233       C  0.55237342  0.50074054  0.20704208     0.99500
O1234       O  0.54991843  0.52543773  0.21257021    -0.81100
O1235       O  0.52210863  0.56141923  0.23152253    -0.83700
C1236       C  0.49882738  0.55108680  0.20534103     1.04000
O1237       O  0.97393916  0.52353472  0.21173388    -0.76500
O1238       O  0.93579490  0.95853822  0.23746959    -0.76700
C1239       C  0.94549419  0.94533627  0.21123713     1.03900
O1240       O  0.95607061  0.93721328  0.30552635    -0.84000
O1241       O  0.52077398  0.96959601  0.32311140    -0.81100
C1242       C  0.54889546  0.49317563  0.32771703     0.99500
O1243       O  0.56053391  0.51761363  0.30204591    -0.81100
O1244       O  0.52733507  0.54898934  0.32164090    -0.83700
C1245       C  0.00401149  0.55408740  0.32587265     1.04000
O1246       O  0.98085274  0.54231678  0.29968025    -0.76500
O1247       O  0.94948011  0.97735239  0.32492485    -0.76700
C1248       C  0.94442513  0.94898250  0.33144698     1.03900
Cr1249     Cr  0.99715031  0.96070195  0.26912905     1.93700
Cr1250     Cr  0.53716245  0.53564405  0.26710726     1.93200
Cr1251     Cr  0.96249686  0.99999677  0.26874153     1.39100
O1252       O  0.99914446  0.49915673  0.26790224    -1.21700
C1253       C  0.58933383  0.47180791  0.12308307     0.24900
C1254       C  0.60881729  0.50048457  0.09797817    -0.23200
C1255       C  0.60676402  0.02802233  0.10807728     0.19900
C1256       C  0.58916071  0.02822029  0.14373685     0.24900
C1257       C  0.57228630  0.50067223  0.17026455    -0.23100
C1258       C  0.57212905  0.47219502  0.15919568     0.19800
F1259       F  0.55408510  0.44404034  0.18214864    -0.13100
F1260       F  0.58448898  0.44250608  0.11145434    -0.15400
F1261       F  0.58870331  0.05591023  0.15132997    -0.15400
F1262       F  0.62091106  0.05492152  0.08193716    -0.13100
C1263       C  0.61931769  0.01463403  0.40402439     0.24900
C1264       C  0.60312247  0.49251392  0.43803604    -0.23200
C1265       C  0.57016116  0.46882245  0.43410833     0.19900
C1266       C  0.55292874  0.46839096  0.39776684     0.24900
C1267       C  0.56824923  0.49182746  0.36430647    -0.23100
C1268       C  0.60202582  0.01448154  0.36764129     0.19800
F1269       F  0.61810273  0.03679212  0.33566263    -0.13100
F1270       F  0.65130402  0.03731151  0.40627776    -0.15400
F1271       F  0.52087247  0.44555360  0.39626810    -0.15400
F1272       F  0.55443529  0.44610288  0.46581128    -0.13100
C1273       C  0.97413388  0.56972650  0.37743399     0.24900
C1274       C  0.00374931  0.57386808  0.36155382    -0.23200
C1275       C  0.53286729  0.59564239  0.38189633     0.19900
C1276       C  0.53223672  0.61227643  0.41775726     0.24900
C1277       C  0.00264449  0.60767446  0.43374772    -0.23100
C1278       C  0.97361534  0.58616183  0.41360025     0.19800
F1279       F  0.94457040  0.57932030  0.43065015    -0.13100
F1280       F  0.94543781  0.54835454  0.35956098    -0.15400
F1281       F  0.56042507  0.63186414  0.43803406    -0.15400
F1282       F  0.56196869  0.60054646  0.36752716    -0.13100
C1283       C  0.53094288  0.61874847  0.11937145     0.24900
C1284       C  0.00340164  0.60912805  0.09331839    -0.23200
C1285       C  0.97499219  0.57933996  0.10410473     0.19900
C1286       C  0.97335434  0.56108634  0.14059995     0.24900
C1287       C  0.00039596  0.57137654  0.16732862    -0.23100
C1288       C  0.52924406  0.60035233  0.15600107     0.19800
F1289       F  0.55651819  0.61047928  0.17942076    -0.13100
F1290       F  0.56045267  0.64441170  0.10853565    -0.15400
F1291       F  0.94511387  0.53291271  0.14914903    -0.15400
F1292       F  0.94862197  0.56717098  0.07849490    -0.13100
C1293       C  0.90213850  0.88112357  0.41651457     0.24900
C1294       C  0.89101921  0.89555089  0.44543854    -0.23200
C1295       C  0.89565393  0.92645092  0.43562940     0.19900
C1296       C  0.91202760  0.94323833  0.39811717     0.24900
C1297       C  0.92466624  0.92964914  0.36959093    -0.23100
C1298       C  0.91902765  0.89805961  0.37901718     0.19800
F1299       F  0.93037293  0.88371362  0.35256888    -0.13100
F1300       F  0.89788475  0.85120824  0.42549853    -0.15400
F1301       F  0.91579321  0.97308721  0.39029321    -0.15400
F1302       F  0.88422063  0.94046055  0.46257031    -0.13100
C1303       C  0.91679250  0.89484805  0.11205629     0.24900
C1304       C  0.88577937  0.89119842  0.10525984    -0.23200
C1305       C  0.87428157  0.90512439  0.13507213     0.19900
C1306       C  0.89325488  0.92196325  0.16999360     0.24900
C1307       C  0.92429054  0.92574274  0.17597956    -0.23100
C1308       C  0.93555051  0.91157275  0.14671581     0.19800
F1309       F  0.96522416  0.91432757  0.15079559    -0.13100
F1310       F  0.92963321  0.88277929  0.08410068    -0.15400
F1311       F  0.88130772  0.93521149  0.19739976    -0.15400
F1312       F  0.84558463  0.90415493  0.13041501    -0.13100
C1313       C  0.59965915  0.74745635  0.94548585     0.24900
C1314       C  0.60716956  0.77265722  0.97380042    -0.23200
C1315       C  0.58685361  0.76652039  0.00977347     0.19900
C1316       C  0.56078957  0.73528988  0.01868885     0.24900
C1317       C  0.55437843  0.70969252  0.99166439    -0.23100
C1318       C  0.57315737  0.71624655  0.95409953     0.19800
F1319       F  0.56695318  0.69210385  0.92695345    -0.13100
F1320       F  0.61845763  0.75294252  0.41008202    -0.15400
F1321       F  0.54222848  0.72982140  0.05437076    -0.15400
F1322       F  0.59343260  0.79030636  0.03780763    -0.13100
C1323       C  0.63279714  0.91417595  0.02275304     0.24900
C1324       C  0.65466636  0.94567676  0.00641527    -0.23200
C1325       C  0.68084850  0.95022049  0.48026218     0.19900
C1326       C  0.68442452  0.92363706  0.46988106     0.24900
C1327       C  0.66237319  0.89219250  0.98642831    -0.23100
C1328       C  0.63726248  0.88823463  0.01415967     0.19800
F1329       F  0.61699015  0.85914113  0.03387865    -0.13100
F1330       F  0.60616813  0.90789031  0.04630148    -0.15400
F1331       F  0.70911750  0.92863851  0.44315966    -0.15400
F1332       F  0.70330976  0.98032759  0.46529490    -0.13100
C1333       C  0.75537297  0.85700128  0.45641429     0.24900
C1334       C  0.72779852  0.83678438  0.98201947    -0.23200
C1335       C  0.73073412  0.81931785  0.01693999     0.19900
C1336       C  0.76105585  0.82335743  0.02739746     0.24900
C1337       C  0.78878333  0.84451101  0.00276836    -0.23100
C1338       C  0.78564140  0.86060011  0.46651731     0.19800
F1339       F  0.81219827  0.88122761  0.44240048    -0.13100
F1340       F  0.75306146  0.87375964  0.42219925    -0.15400
F1341       F  0.76356320  0.80728249  0.06228261    -0.15400
F1342       F  0.70457755  0.79976526  0.04238753    -0.13100
C1343       C  0.74425241  0.61164981  0.96941036     0.24900
C1344       C  0.77053905  0.61114732  0.98951426    -0.23200
C1345       C  0.76437707  0.58295147  0.01310645     0.19900
C1346       C  0.73282452  0.55632299  0.01694198     0.24900
C1347       C  0.70672467  0.55749047  0.99820307    -0.23100
C1348       C  0.71256077  0.58522328  0.97433423     0.19800
F1349       F  0.68745158  0.58728961  0.95730991    -0.13100
F1350       F  0.74911076  0.63789102  0.94542365    -0.15400
F1351       F  0.72741222  0.52991197  0.04098712    -0.15400
F1352       F  0.78844591  0.58176455  0.53477272    -0.13100
C1353       C  0.82230831  0.74122535  0.48012684     0.24900
C1354       C  0.84344292  0.73216613  0.99927715    -0.23200
C1355       C  0.86859295  0.75471576  0.02502097     0.19900
C1356       C  0.87282564  0.78553133  0.03075741     0.24900
C1357       C  0.85073855  0.79407598  0.01332459    -0.23100
C1358       C  0.82540540  0.77144787  0.48790315     0.19800
F1359       F  0.80279124  0.77785345  0.47158721    -0.13100
F1360       F  0.79864915  0.72091680  0.45347759    -0.15400
F1361       F  0.89900651  0.80706649  0.05311776    -0.15400
F1362       F  0.88876835  0.74682020  0.04585673    -0.12900
C1363       C  0.91016518  0.67151495  0.02600678     0.24900
C1364       C  0.89156885  0.66092544  0.98878155    -0.23200
C1365       C  0.90029873  0.64628043  0.45703446     0.19900
C1366       C  0.92728035  0.64224744  0.46254143     0.24900
C1367       C  0.94503097  0.65156448  0.00064581    -0.23100
C1368       C  0.93655281  0.66682799  0.03193388     0.19800
F1369       F  0.95401838  0.67747977  0.06826240    -0.13100
F1370       F  0.90206692  0.68548566  0.05739290    -0.15400
F1371       F  0.93544921  0.62852943  0.43108555    -0.15400
F1372       F  0.88272692  0.63595850  0.42076565    -0.13100
C1373       C  0.86275925  0.66472734  0.98439720     0.04500
C1374       C  0.86637440  0.69561897  0.48732881    -0.11700
C1375       C  0.83919927  0.69937035  0.49273073     0.02000
C1376       C  0.80803825  0.67147061  0.49387945    -0.10200
C1377       C  0.80380281  0.64040422  0.98776212     0.04500
C1378       C  0.83151470  0.63737589  0.98271503    -0.09600
H1379       H  0.89066450  0.71665695  0.48646611     0.10100
H1380       H  0.78709112  0.67380497  0.50093279     0.07600
H1381       H  0.82895628  0.61365740  0.97908753     0.07400
C1382       C  0.66508088  0.86329843  0.47585820     0.04500
C1383       C  0.69509730  0.86436843  0.47760511    -0.11700
C1384       C  0.69660753  0.83577291  0.47462094     0.02000
C1385       C  0.66776872  0.80587514  0.47031902    -0.10200
C1386       C  0.63764296  0.80441294  0.46869430     0.04500
C1387       C  0.63668833  0.83326483  0.46937091    -0.09600
H1388       H  0.71706127  0.88699042  0.48428925     0.10100
H1389       H  0.66863482  0.78358961  0.47068243     0.07600
H1390       H  0.61332984  0.83192097  0.46752716     0.07400
C1391       C  0.86810515  0.87419096  0.56449613     0.87800
C1392       C  0.83326502  0.86701505  0.55564556    -0.52400
C1393       C  0.82133489  0.85239719  0.51751568     0.10800
C1394       C  0.84499433  0.84601107  0.99167329     0.21700
C1395       C  0.86505198  0.84072143  0.56102984    -0.53100
C1396       C  0.85385152  0.82607158  0.52276955     0.10900
C1397       C  0.88788264  0.89392598  0.52479911    -0.52700
C1398       C  0.87595820  0.87934220  0.98696147     0.11400
H1399       H  0.81847679  0.87216253  0.57654598     0.16000
H1400       H  0.83551788  0.83489970  0.96035009     0.01700
H1401       H  0.87077930  0.82946107  0.58755206     0.16300
H1402       H  0.90962430  0.91773127  0.52654674     0.16000
C1403       C  0.00366489  0.62734317  0.55187892     0.87800
C1404       C  0.53182327  0.66248842  0.54332987    -0.52400
C1405       C  0.53012670  0.67586993  0.50487989     0.10800
C1406       C  0.00024872  0.65332980  0.97851361     0.21700
C1407       C  0.97332436  0.63074372  0.54735403    -0.53100
C1408       C  0.97135894  0.64420903  0.50916106     0.10900
C1409       C  0.00364719  0.60872796  0.51261311    -0.52700
C1410       C  0.00183592  0.62208634  0.97456276     0.11400
H1411       H  0.55068938  0.67680114  0.56566980     0.16000
H1412       H  0.49896968  0.66437359  0.94742542     0.01700
H1413       H  0.95513059  0.62357262  0.57264403     0.16300
H1414       H  0.00511546  0.58672345  0.51473630     0.16000
C1415       C  0.62650403  0.50046280  0.55686494     0.87800
C1416       C  0.63603911  0.97408735  0.55499248    -0.52400
C1417       C  0.64912157  0.97294428  0.51656176     0.10800
C1418       C  0.65386000  0.50019601  0.98414560     0.21700
C1419       C  0.65904091  0.53168141  0.54708671    -0.53100
C1420       C  0.67327764  0.53167018  0.50917623     0.10900
C1421       C  0.60569269  0.99584178  0.51791313    -0.52700
C1422       C  0.61973311  0.49587821  0.97944302     0.11400
H1423       H  0.63441513  0.95861267  0.58189308     0.16000
H1424       H  0.66526612  0.50017391  0.95321006     0.01700
H1425       H  0.67092472  0.55136169  0.56927773     0.16300
H1426       H  0.58177194  0.99338048  0.51995795     0.16000
O1427       O  0.97331478  0.94873531  0.71513078    -0.84000
O1428       O  0.53790976  0.97604364  0.73317870    -0.81000
C1429       C  0.55237592  0.50074486  0.70704181     0.99500
O1430       O  0.54992111  0.52544204  0.71257110    -0.81100
O1431       O  0.52210977  0.56142199  0.73152317    -0.83700
C1432       C  0.49882823  0.55108889  0.70534194     1.04000
O1433       O  0.97393693  0.52353610  0.71173742    -0.76500
O1434       O  0.93579240  0.95853721  0.73747145    -0.76700
C1435       C  0.94549141  0.94533543  0.71123833     1.03900
O1436       O  0.95606953  0.93721299  0.80552746    -0.84000
O1437       O  0.52077489  0.96959543  0.82311028    -0.81100
C1438       C  0.54889748  0.49317855  0.82771750     0.99500
O1439       O  0.56053597  0.51761737  0.80204764    -0.81100
O1440       O  0.52733659  0.54899274  0.82164218    -0.83700
C1441       C  0.00400974  0.55408934  0.82587578     1.04000
O1442       O  0.98085048  0.54231774  0.79968413    -0.76500
O1443       O  0.94947958  0.97735240  0.82492626    -0.76700
C1444       C  0.94442444  0.94898246  0.83144839     1.03900
Cr1445     Cr  0.99714861  0.96070104  0.76912859     1.93700
Cr1446     Cr  0.53716435  0.53564759  0.76710844     1.93200
Cr1447     Cr  0.96249552  0.99999611  0.76874245     1.39100
O1448       O  0.99914385  0.49915923  0.76790478    -1.21700
C1449       C  0.58933375  0.47181246  0.62307840     0.24900
C1450       C  0.60881964  0.50049003  0.59797635    -0.23200
C1451       C  0.60676513  0.02802346  0.60807698     0.19900
C1452       C  0.58916099  0.02822085  0.64373605     0.24900
C1453       C  0.57228846  0.50067683  0.67026342    -0.23100
C1454       C  0.57212888  0.47219902  0.65919134     0.19800
F1455       F  0.55408242  0.44404333  0.68214126    -0.13100
F1456       F  0.58448730  0.44251064  0.61144660    -0.15400
F1457       F  0.58870193  0.05591008  0.65132809    -0.15400
F1458       F  0.62091151  0.05492251  0.58193657    -0.13100
C1459       C  0.61931814  0.01463356  0.90402437     0.24900
C1460       C  0.60312217  0.49251341  0.93803737    -0.23200
C1461       C  0.57016059  0.46882304  0.93410885     0.19900
C1462       C  0.55292895  0.46839285  0.89776724     0.24900
C1463       C  0.56825053  0.49182945  0.86430723    -0.23100
C1464       C  0.60202665  0.01448091  0.86764069     0.19800
F1465       F  0.61810372  0.03679164  0.83566223    -0.13100
F1466       F  0.65130433  0.03731135  0.90627869    -0.15400
F1467       F  0.52087233  0.44555663  0.89626806    -0.15400
F1468       F  0.55443369  0.44610313  0.96581107    -0.13100
C1469       C  0.97413235  0.56972807  0.87743830     0.24900
C1470       C  0.00374774  0.57387047  0.86155657    -0.23200
C1471       C  0.53286806  0.59564530  0.88189827     0.19900
C1472       C  0.53223717  0.61227882  0.91775963     0.24900
C1473       C  0.00264386  0.60767777  0.93375007    -0.23100
C1474       C  0.97361433  0.58616404  0.91360423     0.19800
F1475       F  0.94456967  0.57932221  0.93065553    -0.13100
F1476       F  0.94543599  0.54835477  0.85956713    -0.15400
F1477       F  0.56042541  0.63186659  0.93803662    -0.15400
F1478       F  0.56196966  0.60055010  0.86752876    -0.13100
C1479       C  0.53094254  0.61874840  0.61936957     0.24900
C1480       C  0.00339916  0.60912512  0.59331627    -0.23200
C1481       C  0.97498984  0.57933726  0.60410359     0.19900
C1482       C  0.97335199  0.56108497  0.64060034     0.24900
C1483       C  0.00039350  0.57137646  0.66732966    -0.23100
C1484       C  0.52924396  0.60035364  0.65600055     0.19800
F1485       F  0.55651773  0.61048252  0.67942169    -0.13100
F1486       F  0.56045209  0.64441180  0.60853326    -0.15400
F1487       F  0.94511169  0.53291137  0.64915027    -0.15400
F1488       F  0.94861984  0.56716725  0.57849332    -0.13100
C1489       C  0.90213676  0.88112315  0.91651535     0.24900
C1490       C  0.89101796  0.89555062  0.94543977    -0.23200
C1491       C  0.89565368  0.92645118  0.93563132     0.19900
C1492       C  0.91202755  0.94323868  0.89811922     0.24900
C1493       C  0.92466554  0.92964919  0.86959246    -0.23100
C1494       C  0.91902618  0.89805933  0.87901815     0.19800
F1495       F  0.93037101  0.88371316  0.85256949    -0.13100
F1496       F  0.89788249  0.85120756  0.92549880    -0.15400
F1497       F  0.91579417  0.97308803  0.89029607    -0.15400
F1498       F  0.88422144  0.94046142  0.96257288    -0.13100
C1499       C  0.91678613  0.89483710  0.61206663     0.24900
C1500       C  0.88577901  0.89119911  0.60525842    -0.23200
C1501       C  0.87428800  0.90514050  0.63505647     0.19900
C1502       C  0.89325958  0.92197800  0.66997986     0.24900
C1503       C  0.92428769  0.92574222  0.67598054    -0.23100
C1504       C  0.93554194  0.91155946  0.64672884     0.19800
F1505       F  0.96520812  0.91429915  0.65082328    -0.13100
F1506       F  0.92962381  0.88275972  0.58411979    -0.15400
F1507       F  0.88131976  0.93524231  0.69737096    -0.15400
F1508       F  0.84560270  0.90419240  0.63037854    -0.13100
C1509       C  0.59965971  0.74745565  0.44548932     0.24900
C1510       C  0.60716800  0.77265623  0.47380361    -0.23200
C1511       C  0.58684947  0.76651889  0.50977401     0.19900
C1512       C  0.56078511  0.73528812  0.51868733     0.24900
C1513       C  0.55437628  0.70969112  0.49166343    -0.23100
C1514       C  0.57315774  0.71624563  0.45410102     0.19800
F1515       F  0.56695581  0.69210312  0.42695570    -0.13100
F1516       F  0.61845477  0.75294272  0.91007627    -0.15400
F1517       F  0.54222155  0.72981892  0.55436693    -0.15400
F1518       F  0.59342618  0.79030447  0.53780783    -0.13100
C1519       C  0.63279791  0.91417780  0.52275275     0.24900
C1520       C  0.65466747  0.94567825  0.50641409    -0.23200
C1521       C  0.68084806  0.95022009  0.98026393     0.19900
C1522       C  0.68442481  0.92363732  0.96988187     0.24900
C1523       C  0.66237275  0.89219267  0.48642890    -0.23100
C1524       C  0.63726249  0.88823590  0.51416028     0.19800
F1525       F  0.61699002  0.85914298  0.53388057    -0.13100
F1526       F  0.60616931  0.90789307  0.54630146    -0.15400
F1527       F  0.70911820  0.92863979  0.94316057    -0.15400
F1528       F  0.70330931  0.98032762  0.96529806    -0.13100
C1529       C  0.75537522  0.85700440  0.95641506     0.24900
C1530       C  0.72779758  0.83678383  0.48202222    -0.23200
C1531       C  0.73073475  0.81932008  0.51694486     0.19900
C1532       C  0.76105687  0.82336014  0.52740102     0.24900
C1533       C  0.78878323  0.84451141  0.50276839    -0.23100
C1534       C  0.78564325  0.86060282  0.96651947     0.19800
F1535       F  0.81220131  0.88123269  0.94240620    -0.13100
F1536       F  0.75306538  0.87376566  0.92220223    -0.15400
F1537       F  0.76356572  0.80728802  0.56228829    -0.15400
F1538       F  0.70457930  0.79976971  0.54239535    -0.13100
C1539       C  0.74425481  0.61165317  0.46940473     0.24900
C1540       C  0.77054097  0.61115063  0.48950999    -0.23200
C1541       C  0.76437833  0.58295528  0.51310385     0.19900
C1542       C  0.73282560  0.55632713  0.51693941     0.24900
C1543       C  0.70672617  0.55749452  0.49819888    -0.23100
C1544       C  0.71256295  0.58522697  0.47432846     0.19800
F1545       F  0.68745428  0.58729330  0.45730229    -0.13100
F1546       F  0.74911389  0.63789420  0.44541695    -0.15400
F1547       F  0.72741264  0.52991659  0.54098622    -0.15400
F1548       F  0.78844508  0.58176039  0.03477370    -0.13100
C1549       C  0.82230591  0.74122321  0.98013260     0.24900
C1550       C  0.84344650  0.73216908  0.49926977    -0.23200
C1551       C  0.86859704  0.75471922  0.52501266     0.19900
C1552       C  0.87282811  0.78553398  0.53075105     0.24900
C1553       C  0.85073936  0.79407727  0.51332066    -0.23100
C1554       C  0.82540436  0.77144659  0.98790709     0.19800
F1555       F  0.80279134  0.77785302  0.97158914    -0.13100
F1556       F  0.79864677  0.72091475  0.95348326    -0.15400
F1557       F  0.89900873  0.80706962  0.55311141    -0.15400
F1558       F  0.88877416  0.74682482  0.54584614    -0.12900
C1559       C  0.91016811  0.67151698  0.52599862     0.24900
C1560       C  0.89157048  0.66092623  0.48877457    -0.23200
C1561       C  0.90029923  0.64628237  0.95704010     0.19900
C1562       C  0.92728187  0.64225102  0.96254681     0.24900
C1563       C  0.94503039  0.65156183  0.50063960    -0.23100
C1564       C  0.93655463  0.66682828  0.53192609     0.19800
F1565       F  0.95402154  0.67748120  0.56825341    -0.13100
F1566       F  0.90207211  0.68549053  0.55738337    -0.15400
F1567       F  0.93545252  0.62853521  0.93108991    -0.15400
F1568       F  0.88272854  0.63596163  0.92077023    -0.13100
loop_ 
_geom_bond_atom_site_label_1 
_geom_bond_atom_site_label_2 
_geom_bond_distance 
_geom_bond_site_symmetry_2 
_ccdc_geom_bond_type 
C1            C6   1.403       .  A
C1          C198   1.400       .  A
C1          C384   1.480       .  S
C2            C3   1.404       .  A
C2          C197   1.400       .  A
C2            H7   1.083       .  S
C3            C4   1.406       .  A
C3          C178   1.492       .  S
C4          C201   1.408       .  A
C4            H8   1.081   1_556  S
C5            C6   1.408       .  A
C5          C200   1.408       .  A
C5          C364   1.492       .  S
C6            H9   1.083       .  S
C10          C11   1.406       .  A
C10          C15   1.409       .  A
C10         C151   1.493       .  S
C11          C12   1.407       .  A
C11          H16   1.084       .  S
C12          C13   1.404       .  A
C12         C158   1.481       .  S
C13          C14   1.402       .  A
C13          H17   1.084       .  S
C14          C15   1.400       .  A
C14         C138   1.483       .  S
C15          H18   1.083       .  S
C19          C20   1.542       .  S
C19          C25   1.535       .  S
C19          C23   1.535       .  S
C19         C128   1.535       .  S
C20          H27   1.080       .  S
C20          C21   1.368       .  D
C21         C218   1.539   1_554  S
C21         C161   1.476       .  S
C22          C26   1.532       .  S
C22         C217   1.539       .  S
C22         C220   1.546       .  S
C22          H28   1.108       .  S
C23          H29   1.085       .  S
C23          C24   1.368       .  D
C24         C218   1.546   1_554  S
C24         C181   1.494       .  S
C25          H30   1.087       .  S
C25         C222   1.360   1_554  D
C26         C221   1.360       .  D
C26         C118   1.479       .  S
C31          C37   1.532       .  S
C31          C35   1.541       .  S
C31         C816   1.546       .  S
C31         C108   1.540       .  S
C32         C815   1.546       .  S
C32          H39   1.081       .  S
C32          C33   1.369       .  D
C33        C1014   1.538   1_554  S
C33         C141   1.482   1_554  S
C34          C38   1.537       .  S
C34        C1013   1.538       .  S
C34         C232   1.540       .  S
C34         H824   1.111       .  S
C35          H41   1.086       .  S
C35          C36   1.368       .  D
C36         C230   1.540   1_554  S
C36         C191   1.485   1_554  S
C37          H42   1.087       .  S
C37         C234   1.359   1_554  D
C38         C233   1.359       .  D
C38         C101   1.473       .  S
H40         C818   1.111   1_655  S
C43          C47   1.537       .  S
C43         C436   1.537   1_545  S
C43         C441   1.533   1_545  S
C43          C78   1.536       .  S
C44         C435   1.537       .  S
C44          H51   1.082       .  S
C44          C45   1.368       .  D
C45         C634   1.544   1_554  S
C45         C148   1.493       .  S
C46          C50   1.539   1_545  S
C46         C633   1.544   1_545  S
C46         C244   1.542       .  S
C46          H52   1.109       .  S
C47          H53   1.086       .  S
C47          C48   1.365       .  D
C48         C242   1.542   1_554  S
C48         C171   1.473   1_554  S
C49         C435   1.533       .  S
C49          H54   1.086       .  S
C49         C638   1.366   1_554  D
C50         C637   1.365       .  D
C50          C88   1.488       .  S
O55         Cr73   1.966       .  S
O55          C63   1.258       .  A
O56        Cr857   2.022   1_455  S
O56         C449   1.269       .  A
C57          C81   1.490       .  S
C57          O58   1.256       .  A
C57         O448   1.270   1_545  A
O58         Cr74   1.961       .  S
O59         Cr74   2.023       .  S
O59          C60   1.270   1_455  A
C60         C895   1.493       .  S
C60         O845   1.260       .  A
O61        Cr467   1.971   1_545  S
O61         C844   1.260       .  A
O62         Cr75   2.012       .  S
O62          C63   1.265       .  A
C63         C131   1.487       .  S
O64         Cr73   2.024       .  S
O64          C72   1.270       .  A
O65        Cr857   1.964   1_455  S
O65         C458   1.258       .  A
C66          C91   1.491       .  S
C66          O67   1.270   1_565  A
C66         O457   1.257       .  A
O67         Cr74   2.025       .  S
O68         Cr74   1.970       .  S
O68         C853   1.258       .  A
C69          C98   1.481       .  S
C69          O70   1.266       .  A
C69         O852   1.258       .  A
O70        Cr467   2.010   1_545  S
O71         Cr75   1.966       .  S
O71          C72   1.260       .  A
C72         C121   1.491       .  S
Cr73        O840   2.022       .  S
Cr73        O849   1.964       .  S
Cr73        O468   1.767       .  S
Cr74        O860   1.769   1_445  S
Cr75        O453   1.969       .  S
Cr75        O462   2.011       .  S
Cr75        O468   1.768       .  S
O76        Cr465   1.767       .  S
O76        Cr858   1.769   1_565  S
O76        Cr467   1.768       .  S
C77          C78   1.419   1_565  A
C77          C82   1.400       .  A
C77          F84   1.355       .  S
C78         C471   1.411       .  A
C79          C80   1.397       .  A
C79         C470   1.412       .  A
C79          F86   1.358       .  S
C80         C473   1.411       .  A
C80          F85   1.358       .  S
C81          C82   1.406   1_545  A
C81         C472   1.411       .  A
C82          F83   1.358       .  S
C87          C92   1.403       .  A
C87         C480   1.406       .  A
C87          F94   1.356       .  S
C88          C89   1.405       .  A
C88         C479   1.406   1_565  A
C89          C90   1.397       .  A
C89          F96   1.358       .  S
C90          C91   1.413       .  A
C90          F95   1.358       .  S
C91         C484   1.411   1_565  A
C92         C483   1.411       .  A
C92          F93   1.358       .  S
C97          C98   1.409       .  A
C97         C102   1.398       .  A
C97         F104   1.358       .  S
C98         C883   1.410       .  A
C99         C100   1.398       .  A
C99         C882   1.410       .  A
C99         F106   1.358       .  S
C100        C885   1.402       .  A
C100        F105   1.357       .  S
C101        C102   1.401       .  A
C101        C884   1.402       .  A
C102        F103   1.356       .  S
C107        C112   1.403       .  A
C107        C892   1.417       .  A
C107        F114   1.354       .  S
C108        C109   1.414       .  A
C108        C891   1.417       .  A
C109        C110   1.398       .  A
C109        F116   1.358       .  S
C110        C111   1.409       .  A
C110        F115   1.358       .  S
C111        C896   1.408       .  A
C111        C844   1.493       .  S
C112        C895   1.408   1_455  A
C112        F113   1.358       .  S
C117        C118   1.403       .  A
C117        C122   1.403       .  A
C117        F124   1.358       .  S
C118        C119   1.402       .  A
C119        C120   1.395       .  A
C119        F126   1.358       .  S
C120        C121   1.413       .  A
C120        F125   1.358       .  S
C121        C122   1.413       .  A
C122        F123   1.357       .  S
C127        C128   1.414       .  A
C127        C132   1.391       .  A
C127        F134   1.359       .  S
C128        C129   1.416       .  A
C129        C130   1.403       .  A
C129        F136   1.353       .  S
C130        C131   1.409       .  A
C130        F135   1.358       .  S
C131        C132   1.406       .  A
C132        F133   1.358       .  S
C137        C138   1.405       .  A
C137        C142   1.402       .  A
C137        F340   1.357       .  S
C138        C139   1.408   1_556  A
C139        C140   1.397       .  A
C139        F146   1.358       .  S
C140        C141   1.405   1_554  A
C140        F145   1.358       .  S
C141        C142   1.405       .  A
C142        F143   1.355       .  S
F144        C333   1.357       .  S
C147        C148   1.409       .  A
C147        C152   1.389       .  A
C147        F154   1.358       .  S
C148        C345   1.409   1_554  A
C149        C150   1.407       .  A
C149        C344   1.409       .  A
C149        F156   1.357       .  S
C150        C347   1.412       .  A
C150        F155   1.357       .  S
C151        C152   1.407   1_556  A
C151        C346   1.412       .  A
C152        F153   1.358       .  S
C157        C162   1.401       .  A
C157        C354   1.407       .  A
C157        F164   1.358       .  S
C158        C159   1.407   1_556  A
C158        C353   1.407       .  A
C159        C160   1.397       .  A
C159        F166   1.358       .  S
C160        C161   1.404       .  A
C160        F165   1.358       .  S
C161        C358   1.404   1_554  A
C162        C357   1.404       .  A
C162        F163   1.358       .  S
C167        C168   1.413       .  A
C167        C172   1.400       .  A
C167        F174   1.358       .  S
C168        C169   1.412   1_556  A
C168        C201   1.492       .  S
C169        C170   1.398       .  A
C169        F372   1.357       .  S
C170        C171   1.401   1_554  A
C170        F175   1.358       .  S
C171        C172   1.401       .  A
C172        F173   1.357       .  S
F176        C365   1.357       .  S
C177        C182   1.401       .  A
C177        C374   1.409       .  A
C177        F184   1.358       .  S
C178        C179   1.408   1_556  A
C178        C373   1.409       .  A
C179        C180   1.395       .  A
C179        F186   1.358       .  S
C180        C181   1.412       .  A
C180        F185   1.358       .  S
C181        C378   1.409   1_554  A
C182        C377   1.408       .  A
C182        F183   1.356       .  S
C187        C188   1.406   1_554  A
C187        C192   1.396       .  A
C187        F194   1.358       .  S
C188        C385   1.405       .  A
C188        C197   1.481       .  S
C189        C190   1.402       .  A
C189        C384   1.405       .  A
C189        F196   1.358       .  S
C190        C387   1.407       .  A
C190        F195   1.354       .  S
C191        C192   1.406   1_556  A
C191        C386   1.407       .  A
C192        F193   1.358       .  S
C197        C202   1.403       .  A
C198        C199   1.404       .  A
C198        H203   1.083       .  S
C199        C200   1.406       .  A
C199        C374   1.492       .  S
C200        H204   1.081       .  S
C201        C202   1.408       .  A
C202        H205   1.083       .  S
C206        C207   1.406       .  A
C206        C211   1.409       .  A
C206        C347   1.493       .  S
C207        C208   1.407       .  A
C207        H212   1.084       .  S
C208        C209   1.404       .  A
C208        C354   1.481       .  S
C209        C210   1.402       .  A
C209        H213   1.084       .  S
C210        C211   1.400       .  A
C210        C334   1.483       .  S
C211        H214   1.083       .  S
C215        C216   1.542       .  S
C215        C221   1.535       .  S
C215        C219   1.535       .  S
C215        C324   1.535       .  S
C216        H223   1.080       .  S
C216        C217   1.368       .  D
C217        C357   1.476       .  S
C218        C222   1.532       .  S
C218        H224   1.108       .  S
C219        H225   1.085       .  S
C219        C220   1.368       .  D
C220        C377   1.494       .  S
C221        H226   1.087       .  S
C222        C314   1.479       .  S
C227       C1012   1.546       .  S
C227        C233   1.532       .  S
C227        C231   1.541       .  S
C227        C304   1.540       .  S
C228       C1011   1.546       .  S
C228        H235   1.081       .  S
C228        C229   1.369       .  D
C229        C818   1.538       .  S
C229        C337   1.482       .  S
C230        C817   1.538   1_556  S
C230        C234   1.537       .  S
C230       H1020   1.111       .  S
C231        H237   1.086       .  S
C231        C232   1.368       .  D
C232        C387   1.485       .  S
C233        H238   1.087       .  S
C234        C297   1.473       .  S
H236       C1014   1.111   1_655  S
C239        C632   1.537   1_545  S
C239        C637   1.533   1_545  S
C239        C243   1.537       .  S
C239        C274   1.536       .  S
C240        C631   1.537       .  S
C240        H247   1.082       .  S
C240        C241   1.368       .  D
C241        C438   1.544       .  S
C241        C344   1.493       .  S
C242        C437   1.544   1_546  S
C242        C246   1.539   1_545  S
C242        H248   1.109       .  S
C243        H249   1.086       .  S
C243        C244   1.365       .  D
C244        C367   1.473       .  S
C245        C631   1.533       .  S
C245        H250   1.086       .  S
C245        C442   1.366       .  D
C246        C441   1.365   1_556  D
C246        C284   1.488       .  S
O251       Cr269   1.966       .  S
O251        C259   1.258       .  A
O252      Cr1053   2.022   1_455  S
O252        C645   1.269       .  A
C253        C277   1.490       .  S
C253        O644   1.270   1_545  A
C253        O254   1.256       .  A
O254       Cr270   1.961       .  S
O255       Cr270   2.023       .  S
O255        C256   1.270   1_455  A
C256       C1091   1.493       .  S
C256       O1041   1.260       .  A
O257       Cr663   1.971   1_545  S
O257       C1040   1.260       .  A
O258       Cr271   2.012       .  S
O258        C259   1.265       .  A
C259        C327   1.487       .  S
O260       Cr269   2.024       .  S
O260        C268   1.270       .  A
O261      Cr1053   1.964   1_455  S
O261        C654   1.258       .  A
C262        C287   1.491       .  S
C262        O653   1.257       .  A
C262        O263   1.270   1_565  A
O263       Cr270   2.025       .  S
O264       Cr270   1.970       .  S
O264       C1049   1.258       .  A
C265        C294   1.481       .  S
C265       O1048   1.258       .  A
C265        O266   1.266       .  A
O266       Cr663   2.010   1_545  S
O267       Cr271   1.966       .  S
O267        C268   1.260       .  A
C268        C317   1.491       .  S
Cr269      O1036   2.022       .  S
Cr269      O1045   1.964       .  S
Cr269       O664   1.767       .  S
Cr270      O1056   1.769   1_445  S
Cr271       O649   1.968       .  S
Cr271       O658   2.011       .  S
Cr271       O664   1.768       .  S
O272       Cr661   1.767       .  S
O272      Cr1054   1.769   1_565  S
O272       Cr663   1.768       .  S
C273        C274   1.419   1_565  A
C273        C278   1.400       .  A
C273        F280   1.355       .  S
C274        C667   1.411       .  A
C275        C666   1.412       .  A
C275        C276   1.397       .  A
C275        F282   1.358       .  S
C276        C669   1.411       .  A
C276        F281   1.358       .  S
C277        C668   1.411       .  A
C277        C278   1.406   1_545  A
C278        F279   1.358       .  S
C283        C676   1.406       .  A
C283        C288   1.403       .  A
C283        F290   1.356       .  S
C284        C675   1.406   1_565  A
C284        C285   1.405       .  A
C285        C286   1.397       .  A
C285        F292   1.358       .  S
C286        C287   1.413       .  A
C286        F291   1.358       .  S
C287        C680   1.411   1_565  A
C288        C679   1.411       .  A
C288        F289   1.358       .  S
C293        C294   1.409       .  A
C293        C298   1.398       .  A
C293        F300   1.358       .  S
C294       C1079   1.410       .  A
C295       C1078   1.410       .  A
C295        C296   1.398       .  A
C295        F302   1.358       .  S
C296       C1081   1.402       .  A
C296        F301   1.357       .  S
C297       C1080   1.402       .  A
C297        C298   1.401       .  A
C298        F299   1.356       .  S
C303       C1088   1.417       .  A
C303        C308   1.403       .  A
C303        F310   1.354       .  S
C304       C1087   1.417       .  A
C304        C305   1.414       .  A
C305        C306   1.398       .  A
C305        F312   1.358       .  S
C306        C307   1.409       .  A
C306        F311   1.358       .  S
C307       C1092   1.408       .  A
C307       C1040   1.493       .  S
C308       C1091   1.408   1_455  A
C308        F309   1.358       .  S
C313        C314   1.403       .  A
C313        C318   1.403       .  A
C313        F320   1.358       .  S
C314        C315   1.402       .  A
C315        C316   1.395       .  A
C315        F322   1.358       .  S
C316        C317   1.413       .  A
C316        F321   1.358       .  S
C317        C318   1.413       .  A
C318        F319   1.357       .  S
C323        C324   1.414       .  A
C323        C328   1.391       .  A
C323        F330   1.359       .  S
C324        C325   1.416       .  A
C325        C326   1.403       .  A
C325        F332   1.353       .  S
C326        C327   1.409       .  A
C326        F331   1.358       .  S
C327        C328   1.406       .  A
C328        F329   1.358       .  S
C333        C334   1.405       .  A
C333        C338   1.402       .  A
C334        C335   1.408       .  A
C335        C336   1.397       .  A
C335        F342   1.358       .  S
C336        C337   1.405       .  A
C336        F341   1.358       .  S
C337        C338   1.405       .  A
C338        F339   1.355       .  S
C343        C344   1.409       .  A
C343        C348   1.389       .  A
C343        F350   1.358       .  S
C345        C346   1.407       .  A
C345        F352   1.357       .  S
C346        F351   1.357       .  S
C347        C348   1.407       .  A
C348        F349   1.358       .  S
C353        C358   1.401       .  A
C353        F360   1.358       .  S
C354        C355   1.407       .  A
C355        C356   1.397       .  A
C355        F362   1.358       .  S
C356        C357   1.404       .  A
C356        F361   1.358       .  S
C358        F359   1.358       .  S
C363        C364   1.413       .  A
C363        C368   1.400       .  A
C363        F370   1.358       .  S
C364        C365   1.412       .  A
C365        C366   1.398       .  A
C366        C367   1.401       .  A
C366        F371   1.358       .  S
C367        C368   1.401       .  A
C368        F369   1.357       .  S
C373        C378   1.401       .  A
C373        F380   1.358       .  S
C374        C375   1.408       .  A
C375        C376   1.395       .  A
C375        F382   1.358       .  S
C376        C377   1.412       .  A
C376        F381   1.358       .  S
C378        F379   1.356       .  S
C383        C384   1.406       .  A
C383        C388   1.396       .  A
C383        F390   1.358       .  S
C385        C386   1.402       .  A
C385        F392   1.358       .  S
C386        F391   1.354       .  S
C387        C388   1.406       .  A
C388        F389   1.358       .  S
C393        C590   1.400       .  A
C393        C398   1.402       .  A
C393        C776   1.478       .  S
C394        C589   1.400       .  A
C394        C395   1.404       .  A
C394        H399   1.083       .  S
C395        C396   1.407       .  A
C395        C570   1.492       .  S
C396        C593   1.409       .  A
C396        H400   1.081   1_556  S
C397        C592   1.409       .  A
C397        C398   1.407       .  A
C397        C756   1.492       .  S
C398        H401   1.084       .  S
C402        C403   1.406       .  A
C402        C407   1.408       .  A
C402        C543   1.492       .  S
C403        C404   1.407       .  A
C403        H408   1.084       .  S
C404        C405   1.404       .  A
C404        C550   1.481       .  S
C405        C406   1.402       .  A
C405        H409   1.084       .  S
C406        C407   1.400       .  A
C406        C530   1.482       .  S
C407        H410   1.083       .  S
C411        C412   1.543       .  S
C411        C417   1.536       .  S
C411        C415   1.534       .  S
C411        C520   1.535       .  S
C412        H419   1.079       .  S
C412        C413   1.368       .  D
C413        C610   1.540   1_554  S
C413        C553   1.477       .  S
C414        C609   1.540       .  S
C414        C418   1.532       .  S
C414        C612   1.546       .  S
C414        H420   1.109       .  S
C415        H421   1.085       .  S
C415        C416   1.367       .  D
C416        C610   1.546   1_554  S
C416        C573   1.494       .  S
C417        H422   1.087       .  S
C417        C614   1.360   1_554  D
C418        C613   1.360       .  D
C418        C510   1.479       .  S
C423       C1208   1.546       .  S
C423        C429   1.532       .  S
C423        C427   1.540       .  S
C423        C500   1.539       .  S
C424       C1207   1.546       .  S
C424        H431   1.080       .  S
C424        C425   1.369       .  D
C425       C1406   1.537   1_554  S
C425        C533   1.481   1_554  S
C426       C1405   1.537       .  S
C426        C430   1.537       .  S
C426        C624   1.541       .  S
C426       H1216   1.111       .  S
C427        H433   1.086       .  S
C427        C428   1.368       .  D
C428        C622   1.541   1_554  S
C428        C583   1.485       .  S
C429        H434   1.087       .  S
C429        C626   1.359   1_554  D
C430        C625   1.359       .  D
C430        C493   1.473       .  S
H432       C1210   1.111   1_655  S
C435        C439   1.537       .  S
C435        C470   1.536       .  S
C436        H443   1.082       .  S
C436        C437   1.368       .  D
C437        C540   1.492       .  S
C438        C442   1.540       .  S
C438        C636   1.542       .  S
C438        H444   1.109       .  S
C439        H445   1.086       .  S
C439        C440   1.365       .  D
C440        C634   1.542   1_554  S
C440        C563   1.474   1_554  S
C441        H446   1.086       .  S
C442        C480   1.488       .  S
O447       Cr465   1.966       .  S
O447        C455   1.258       .  A
O448      Cr1249   2.022   1_455  S
C449        C473   1.491       .  S
C449        O450   1.257       .  A
O450       Cr466   1.962       .  S
O451       Cr466   2.022       .  S
O451        C452   1.270   1_455  A
C452       C1287   1.492   1_655  S
C452       O1237   1.260       .  A
O453       C1236   1.260       .  A
O454       Cr467   2.011       .  S
O454        C455   1.265       .  A
C455        C523   1.486       .  S
O456       Cr465   2.025       .  S
O456        C464   1.270       .  A
O457      Cr1249   1.963   1_455  S
C458        C483   1.491       .  S
C458        O459   1.270       .  A
O459       Cr466   2.024       .  S
O460       Cr466   1.970       .  S
O460       C1245   1.259       .  A
C461        C490   1.482       .  S
C461       O1244   1.259       .  A
C461        O462   1.266       .  A
O463       Cr467   1.966       .  S
O463        C464   1.260       .  A
C464        C513   1.492       .  S
Cr465      O1232   2.022       .  S
Cr465      O1241   1.963       .  S
Cr466      O1252   1.768   1_455  S
O468      Cr1250   1.768       .  S
C469        C470   1.419       .  A
C469        C474   1.400       .  A
C469        F476   1.356       .  S
C471        C472   1.397       .  A
C471        F478   1.358       .  S
C472        F477   1.358       .  S
C473        C474   1.406       .  A
C474        F475   1.358       .  S
C479        C484   1.403       .  A
C479        F486   1.356       .  S
C480        C481   1.405       .  A
C481        C482   1.397       .  A
C481        F488   1.358       .  S
C482        C483   1.412       .  A
C482        F487   1.358       .  S
C484        F485   1.358       .  S
C489        C490   1.410       .  A
C489        C494   1.398       .  A
C489        F496   1.358       .  S
C490       C1275   1.410       .  A
C491       C1274   1.410       .  A
C491        C492   1.398       .  A
C491        F498   1.358       .  S
C492       C1277   1.402       .  A
C492        F497   1.358       .  S
C493       C1276   1.402       .  A
C493        C494   1.401       .  A
C494        F495   1.356       .  S
C499       C1284   1.417       .  A
C499        C504   1.403       .  A
C499        F506   1.353       .  S
C500       C1283   1.417       .  A
C500        C501   1.414       .  A
C501        C502   1.396       .  A
C501        F508   1.359       .  S
C502        C503   1.408       .  A
C502        F507   1.358       .  S
C503       C1288   1.408       .  A
C503       C1236   1.492       .  S
C504       C1287   1.408       .  A
C504        F505   1.358       .  S
C509        C510   1.403       .  A
C509        C514   1.404       .  A
C509        F516   1.358       .  S
C510        C511   1.401       .  A
C511        C512   1.395       .  A
C511        F518   1.358       .  S
C512        C513   1.413       .  A
C512        F517   1.358       .  S
C513        C514   1.414       .  A
C514        F515   1.357       .  S
C519        C520   1.414       .  A
C519        C524   1.391       .  A
C519        F526   1.359       .  S
C520        C521   1.416       .  A
C521        C522   1.402       .  A
C521        F528   1.352       .  S
C522        C523   1.409       .  A
C522        F527   1.358       .  S
C523        C524   1.405       .  A
C524        F525   1.358       .  S
C529        C530   1.405       .  A
C529        C534   1.402       .  A
C529        F732   1.357       .  S
C530        C531   1.408   1_556  A
C531        C532   1.397       .  A
C531        F538   1.358       .  S
C532        C533   1.404   1_554  A
C532        F537   1.358       .  S
C533        C534   1.405       .  A
C534        F535   1.356       .  S
F536        C725   1.357       .  S
C539        C540   1.409       .  A
C539        C544   1.389       .  A
C539        F546   1.358       .  S
C540        C737   1.409   1_554  A
C541        C736   1.409       .  A
C541        C542   1.407       .  A
C541        F548   1.357       .  S
C542        C739   1.411       .  A
C542        F547   1.357       .  S
C543        C738   1.411       .  A
C543        C544   1.407   1_556  A
C544        F545   1.358       .  S
C549        C746   1.406       .  A
C549        C554   1.401       .  A
C549        F556   1.358       .  S
C550        C745   1.406       .  A
C550        C551   1.407   1_556  A
C551        C552   1.398       .  A
C551        F558   1.358       .  S
C552        C553   1.404       .  A
C552        F557   1.358       .  S
C553        C750   1.404   1_554  A
C554        C749   1.404       .  A
C554        F555   1.357       .  S
C559        C560   1.412       .  A
C559        C564   1.401       .  A
C559        F566   1.358       .  S
C560        C561   1.411   1_556  A
C560        C593   1.492       .  S
C561        C562   1.397       .  A
C561        F764   1.357       .  S
C562        C563   1.401   1_554  A
C562        F567   1.358       .  S
C563        C564   1.402       .  A
C564        F565   1.357       .  S
F568        C757   1.357       .  S
C569        C766   1.409       .  A
C569        C574   1.400       .  A
C569        F576   1.358       .  S
C570        C765   1.409       .  A
C570        C571   1.409   1_556  A
C571        C572   1.395       .  A
C571        F578   1.358       .  S
C572        C573   1.412       .  A
C572        F577   1.358       .  S
C573        C770   1.408   1_554  A
C574        C769   1.408       .  A
C574        F575   1.356       .  S
C579        C580   1.405   1_554  A
C579        C584   1.395       .  A
C579        F586   1.358       .  S
C580        C777   1.404       .  A
C580        C589   1.478       .  S
C581        C776   1.404       .  A
C581        C582   1.402       .  A
C581        F588   1.358       .  S
C582        C779   1.407       .  A
C582        F587   1.354       .  S
C583        C778   1.407   1_554  A
C583        C584   1.407       .  A
C584        F585   1.358       .  S
C589        C594   1.402       .  A
C590        C591   1.404       .  A
C590        H595   1.083       .  S
C591        C592   1.407       .  A
C591        C766   1.492       .  S
C592        H596   1.081       .  S
C593        C594   1.407       .  A
C594        H597   1.084       .  S
C598        C599   1.406       .  A
C598        C603   1.408       .  A
C598        C739   1.492       .  S
C599        C600   1.407       .  A
C599        H604   1.084       .  S
C600        C601   1.404       .  A
C600        C746   1.481       .  S
C601        C602   1.402       .  A
C601        H605   1.084       .  S
C602        C603   1.400       .  A
C602        C726   1.482       .  S
C603        H606   1.083       .  S
C607        C608   1.543       .  S
C607        C613   1.536       .  S
C607        C611   1.534       .  S
C607        C716   1.535       .  S
C608        H615   1.079       .  S
C608        C609   1.368       .  D
C609        C749   1.477       .  S
C610        C614   1.532       .  S
C610        H616   1.109       .  S
C611        H617   1.085       .  S
C611        C612   1.367       .  D
C612        C769   1.494       .  S
C613        H618   1.087       .  S
C614        C706   1.479       .  S
C619       C1404   1.546       .  S
C619        C625   1.532       .  S
C619        C623   1.540       .  S
C619        C696   1.539       .  S
C620       C1403   1.546       .  S
C620        H627   1.080       .  S
C620        C621   1.369       .  D
C621       C1210   1.537       .  S
C621        C729   1.481       .  S
C622       C1209   1.537   1_556  S
C622        C626   1.537       .  S
C622       H1412   1.111       .  S
C623        H629   1.086       .  S
C623        C624   1.368       .  D
C624        C779   1.485       .  S
C625        H630   1.087       .  S
C626        C689   1.473       .  S
H628       C1406   1.111   1_655  S
C631        C635   1.537       .  S
C631        C666   1.536       .  S
C632        H639   1.082       .  S
C632        C633   1.368       .  D
C633        C736   1.492       .  S
C634        C638   1.540       .  S
C634        H640   1.109       .  S
C635        H641   1.086       .  S
C635        C636   1.365       .  D
C636        C759   1.474       .  S
C637        H642   1.086       .  S
C638        C676   1.488       .  S
O643       Cr661   1.966       .  S
O643        C651   1.258       .  A
O644      Cr1445   2.022   1_455  S
C645        C669   1.491       .  S
C645        O646   1.257       .  A
O646       Cr662   1.962       .  S
O647       Cr662   2.022       .  S
O647        C648   1.270   1_455  A
C648       C1483   1.492   1_655  S
C648       O1433   1.260       .  A
O649       C1432   1.260       .  A
O650       Cr663   2.011       .  S
O650        C651   1.265       .  A
C651        C719   1.486       .  S
O652       Cr661   2.025       .  S
O652        C660   1.270       .  A
O653      Cr1445   1.963   1_455  S
C654        C679   1.491       .  S
C654        O655   1.270       .  A
O655       Cr662   2.024       .  S
O656       Cr662   1.970       .  S
O656       C1441   1.259       .  A
C657        C686   1.482       .  S
C657       O1440   1.259       .  A
C657        O658   1.266       .  A
O659       Cr663   1.966       .  S
O659        C660   1.260       .  A
C660        C709   1.492       .  S
Cr661      O1428   2.022       .  S
Cr661      O1437   1.963       .  S
Cr662      O1448   1.768   1_455  S
O664      Cr1446   1.768       .  S
C665        C666   1.419       .  A
C665        C670   1.400       .  A
C665        F672   1.356       .  S
C667        C668   1.397       .  A
C667        F674   1.358       .  S
C668        F673   1.358       .  S
C669        C670   1.406       .  A
C670        F671   1.358       .  S
C675        C680   1.403       .  A
C675        F682   1.356       .  S
C676        C677   1.405       .  A
C677        C678   1.397       .  A
C677        F684   1.358       .  S
C678        C679   1.412       .  A
C678        F683   1.358       .  S
C680        F681   1.358       .  S
C685        C686   1.410       .  A
C685        C690   1.398       .  A
C685        F692   1.358       .  S
C686       C1471   1.410       .  A
C687       C1470   1.410       .  A
C687        C688   1.398       .  A
C687        F694   1.358       .  S
C688       C1473   1.402       .  A
C688        F693   1.358       .  S
C689       C1472   1.402       .  A
C689        C690   1.401       .  A
C690        F691   1.356       .  S
C695       C1480   1.417       .  A
C695        C700   1.403       .  A
C695        F702   1.353       .  S
C696       C1479   1.417       .  A
C696        C697   1.414       .  A
C697        C698   1.396       .  A
C697        F704   1.359       .  S
C698        C699   1.408       .  A
C698        F703   1.358       .  S
C699       C1484   1.408       .  A
C699       C1432   1.492       .  S
C700       C1483   1.408       .  A
C700        F701   1.358       .  S
C705        C706   1.403       .  A
C705        C710   1.404       .  A
C705        F712   1.358       .  S
C706        C707   1.401       .  A
C707        C708   1.395       .  A
C707        F714   1.358       .  S
C708        C709   1.413       .  A
C708        F713   1.358       .  S
C709        C710   1.414       .  A
C710        F711   1.357       .  S
C715        C716   1.414       .  A
C715        C720   1.391       .  A
C715        F722   1.359       .  S
C716        C717   1.416       .  A
C717        C718   1.402       .  A
C717        F724   1.352       .  S
C718        C719   1.409       .  A
C718        F723   1.358       .  S
C719        C720   1.405       .  A
C720        F721   1.358       .  S
C725        C726   1.405       .  A
C725        C730   1.402       .  A
C726        C727   1.408       .  A
C727        C728   1.397       .  A
C727        F734   1.358       .  S
C728        C729   1.404       .  A
C728        F733   1.358       .  S
C729        C730   1.405       .  A
C730        F731   1.356       .  S
C735        C736   1.409       .  A
C735        C740   1.389       .  A
C735        F742   1.358       .  S
C737        C738   1.407       .  A
C737        F744   1.357       .  S
C738        F743   1.357       .  S
C739        C740   1.407       .  A
C740        F741   1.358       .  S
C745        C750   1.401       .  A
C745        F752   1.358       .  S
C746        C747   1.407       .  A
C747        C748   1.398       .  A
C747        F754   1.358       .  S
C748        C749   1.404       .  A
C748        F753   1.358       .  S
C750        F751   1.357       .  S
C755        C756   1.412       .  A
C755        C760   1.401       .  A
C755        F762   1.358       .  S
C756        C757   1.411       .  A
C757        C758   1.397       .  A
C758        C759   1.401       .  A
C758        F763   1.358       .  S
C759        C760   1.402       .  A
C760        F761   1.357       .  S
C765        C770   1.400       .  A
C765        F772   1.358       .  S
C766        C767   1.409       .  A
C767        C768   1.395       .  A
C767        F774   1.358       .  S
C768        C769   1.412       .  A
C768        F773   1.358       .  S
C770        F771   1.356       .  S
C775        C776   1.405       .  A
C775        C780   1.395       .  A
C775        F782   1.358       .  S
C777        C778   1.402       .  A
C777        F784   1.358       .  S
C778        F783   1.354       .  S
C779        C780   1.407       .  A
C780        F781   1.358       .  S
C785        C982   1.400       .  A
C785        C790   1.403       .  A
C785       C1168   1.480       .  S
C786        C981   1.400       .  A
C786        C787   1.404       .  A
C786        H791   1.083       .  S
C787        C788   1.406       .  A
C787        C962   1.492       .  S
C788        C985   1.408       .  A
C788        H792   1.081   1_556  S
C789        C984   1.408       .  A
C789        C790   1.408       .  A
C789       C1148   1.492       .  S
C790        H793   1.083       .  S
C794        C795   1.406       .  A
C794        C799   1.409       .  A
C794        C935   1.493       .  S
C795        C796   1.407       .  A
C795        H800   1.084       .  S
C796        C797   1.404       .  A
C796        C942   1.481       .  S
C797        C798   1.402       .  A
C797        H801   1.084       .  S
C798        C799   1.400       .  A
C798        C922   1.483       .  S
C799        H802   1.083       .  S
C803        C804   1.542       .  S
C803        C809   1.535       .  S
C803        C807   1.535       .  S
C803        C912   1.535       .  S
C804        H811   1.080       .  S
C804        C805   1.368       .  D
C805       C1002   1.539   1_554  S
C805        C945   1.476       .  S
C806       C1001   1.539       .  S
C806        C810   1.532       .  S
C806       C1004   1.546       .  S
C806        H812   1.108       .  S
C807        H813   1.085       .  S
C807        C808   1.368       .  D
C808       C1002   1.546   1_554  S
C808        C965   1.494       .  S
C809        H814   1.087       .  S
C809       C1006   1.360   1_554  D
C810       C1005   1.360       .  D
C810        C902   1.479       .  S
C815        C821   1.532       .  S
C815        C819   1.541   1_455  S
C815        C892   1.540       .  S
C816        H823   1.081       .  S
C816        C817   1.369       .  D
C817        C925   1.482   1_554  S
C818        C822   1.537       .  S
C818       C1016   1.540   1_455  S
C819        H825   1.086       .  S
C819        C820   1.368       .  D
C820       C1014   1.540   1_654  S
C820        C975   1.485   1_554  S
C821        H826   1.087       .  S
C821       C1018   1.359   1_554  D
C822       C1017   1.359       .  D
C822        C885   1.473       .  S
C827       C1220   1.537   1_545  S
C827       C1225   1.533   1_545  S
C827        C831   1.537       .  S
C827        C862   1.536       .  S
C828       C1219   1.537       .  S
C828        H835   1.082       .  S
C828        C829   1.368       .  D
C829       C1418   1.544   1_554  S
C829        C932   1.493       .  S
C830       C1417   1.544   1_545  S
C830        C834   1.539   1_545  S
C830       C1028   1.542       .  S
C830        H836   1.109       .  S
C831        H837   1.086       .  S
C831        C832   1.365       .  D
C832       C1026   1.542   1_554  S
C832        C955   1.473   1_554  S
C833       C1219   1.533       .  S
C833        H838   1.086       .  S
C833       C1422   1.366   1_554  D
C834       C1421   1.365       .  D
C834        C872   1.488       .  S
O839       Cr857   1.966       .  S
O839        C847   1.258       .  A
O840       C1233   1.269       .  A
C841        C865   1.490       .  S
C841       O1232   1.270   1_545  A
C841        O842   1.256       .  A
O842       Cr858   1.961       .  S
O843       Cr858   2.023       .  S
O843        C844   1.270       .  A
O845      Cr1251   1.971   1_545  S
O846       Cr859   2.012       .  S
O846        C847   1.265       .  A
C847        C915   1.487       .  S
O848       Cr857   2.024       .  S
O848        C856   1.270       .  A
O849       C1242   1.258       .  A
C850        C875   1.491       .  S
C850       O1241   1.257       .  A
C850        O851   1.270   1_565  A
O851       Cr858   2.025       .  S
O852       Cr858   1.970       .  S
C853        C882   1.481       .  S
C853        O854   1.266   1_455  A
O854      Cr1251   2.010   1_545  S
O855       Cr859   1.966       .  S
O855        C856   1.260       .  A
C856        C905   1.491       .  S
Cr857      O1252   1.767       .  S
Cr859      O1237   1.969       .  S
Cr859      O1246   2.011       .  S
Cr859      O1252   1.768       .  S
O860      Cr1249   1.767       .  S
O860      Cr1251   1.768       .  S
C861        C862   1.419   1_565  A
C861        C866   1.400       .  A
C861        F868   1.355       .  S
C862       C1255   1.411       .  A
C863       C1254   1.412       .  A
C863        C864   1.397       .  A
C863        F870   1.358       .  S
C864       C1257   1.411       .  A
C864        F869   1.358       .  S
C865       C1256   1.411       .  A
C865        C866   1.406   1_545  A
C866        F867   1.358       .  S
C871       C1264   1.406       .  A
C871        C876   1.403       .  A
C871        F878   1.356       .  S
C872       C1263   1.406   1_565  A
C872        C873   1.405       .  A
C873        C874   1.397       .  A
C873        F880   1.358       .  S
C874        C875   1.413       .  A
C874        F879   1.358       .  S
C875       C1268   1.411   1_565  A
C876       C1267   1.411       .  A
C876        F877   1.358       .  S
C881        C882   1.409   1_655  A
C881        C886   1.398       .  A
C881        F888   1.358       .  S
C883        C884   1.398       .  A
C883        F890   1.358       .  S
C884        F889   1.357       .  S
C885        C886   1.401   1_455  A
C886        F887   1.356       .  S
C891        C896   1.403       .  A
C891        F898   1.354       .  S
C892        C893   1.414   1_455  A
C893        C894   1.398       .  A
C893        F900   1.358       .  S
C894        C895   1.409       .  A
C894        F899   1.358       .  S
C896        F897   1.358       .  S
C901        C902   1.403       .  A
C901        C906   1.403       .  A
C901        F908   1.358       .  S
C902        C903   1.402       .  A
C903        C904   1.395       .  A
C903        F910   1.358       .  S
C904        C905   1.413       .  A
C904        F909   1.358       .  S
C905        C906   1.413       .  A
C906        F907   1.357       .  S
C911        C912   1.414       .  A
C911        C916   1.391       .  A
C911        F918   1.359       .  S
C912        C913   1.416       .  A
C913        C914   1.403       .  A
C913        F920   1.353       .  S
C914        C915   1.409       .  A
C914        F919   1.358       .  S
C915        C916   1.406       .  A
C916        F917   1.358       .  S
C921        C922   1.405       .  A
C921        C926   1.402       .  A
C921       F1124   1.357       .  S
C922        C923   1.408   1_556  A
C923        C924   1.397       .  A
C923        F930   1.358       .  S
C924        C925   1.405   1_554  A
C924        F929   1.358       .  S
C925        C926   1.405       .  A
C926        F927   1.355       .  S
F928       C1117   1.357       .  S
C931        C932   1.409       .  A
C931        C936   1.389       .  A
C931        F938   1.358       .  S
C932       C1129   1.409   1_554  A
C933       C1128   1.409       .  A
C933        C934   1.407       .  A
C933        F940   1.357       .  S
C934       C1131   1.412       .  A
C934        F939   1.357       .  S
C935       C1130   1.412       .  A
C935        C936   1.407   1_556  A
C936        F937   1.358       .  S
C941       C1138   1.407       .  A
C941        C946   1.401       .  A
C941        F948   1.358       .  S
C942       C1137   1.407       .  A
C942        C943   1.407   1_556  A
C943        C944   1.397       .  A
C943        F950   1.358       .  S
C944        C945   1.404       .  A
C944        F949   1.358       .  S
C945       C1142   1.404   1_554  A
C946       C1141   1.404       .  A
C946        F947   1.358       .  S
C951        C952   1.413       .  A
C951        C956   1.400       .  A
C951        F958   1.358       .  S
C952        C953   1.412   1_556  A
C952        C985   1.492       .  S
C953        C954   1.398       .  A
C953       F1156   1.357       .  S
C954        C955   1.401   1_554  A
C954        F959   1.358       .  S
C955        C956   1.401       .  A
C956        F957   1.357       .  S
F960       C1149   1.357       .  S
C961       C1158   1.409       .  A
C961        C966   1.401       .  A
C961        F968   1.358       .  S
C962       C1157   1.409       .  A
C962        C963   1.408   1_556  A
C963        C964   1.395       .  A
C963        F970   1.358       .  S
C964        C965   1.412       .  A
C964        F969   1.358       .  S
C965       C1162   1.409   1_554  A
C966       C1161   1.408       .  A
C966        F967   1.356       .  S
C971        C972   1.406   1_554  A
C971        C976   1.396       .  A
C971        F978   1.358       .  S
C972       C1169   1.405       .  A
C972        C981   1.480       .  S
C973       C1168   1.405       .  A
C973        C974   1.402       .  A
C973        F980   1.358       .  S
C974       C1171   1.407       .  A
C974        F979   1.354       .  S
C975       C1170   1.407       .  A
C975        C976   1.406   1_556  A
C976        F977   1.358       .  S
C981        C986   1.403       .  A
C982        C983   1.404       .  A
C982        H987   1.083       .  S
C983        C984   1.406       .  A
C983       C1158   1.492       .  S
C984        H988   1.081       .  S
C985        C986   1.408       .  A
C986        H989   1.083       .  S
C990        C991   1.406       .  A
C990        C995   1.409       .  A
C990       C1131   1.493       .  S
C991        C992   1.407       .  A
C991        H996   1.084       .  S
C992        C993   1.404       .  A
C992       C1138   1.481       .  S
C993        C994   1.402       .  A
C993        H997   1.084       .  S
C994        C995   1.400       .  A
C994       C1118   1.483       .  S
C995        H998   1.083       .  S
C999       C1000   1.542       .  S
C999       C1005   1.535       .  S
C999       C1003   1.535       .  S
C999       C1108   1.535       .  S
C1000      H1007   1.080       .  S
C1000      C1001   1.368       .  D
C1001      C1141   1.476       .  S
C1002      C1006   1.532       .  S
C1002      H1008   1.108       .  S
C1003      H1009   1.085       .  S
C1003      C1004   1.368       .  D
C1004      C1161   1.494       .  S
C1005      H1010   1.087       .  S
C1006      C1098   1.479       .  S
C1011      C1017   1.532       .  S
C1011      C1015   1.541   1_455  S
C1011      C1088   1.540       .  S
C1012      H1019   1.081       .  S
C1012      C1013   1.369       .  D
C1013      C1121   1.482       .  S
C1014      C1018   1.537       .  S
C1015      H1021   1.086       .  S
C1015      C1016   1.368       .  D
C1016      C1171   1.485       .  S
C1017      H1022   1.087       .  S
C1018      C1081   1.473       .  S
C1023      C1416   1.537   1_545  S
C1023      C1421   1.533   1_545  S
C1023      C1027   1.537       .  S
C1023      C1058   1.536       .  S
C1024      C1415   1.537       .  S
C1024      H1031   1.082       .  S
C1024      C1025   1.368       .  D
C1025      C1222   1.544       .  S
C1025      C1128   1.493       .  S
C1026      C1221   1.544   1_546  S
C1026      C1030   1.539   1_545  S
C1026      H1032   1.109       .  S
C1027      H1033   1.086       .  S
C1027      C1028   1.365       .  D
C1028      C1151   1.473       .  S
C1029      C1415   1.533       .  S
C1029      H1034   1.086       .  S
C1029      C1226   1.366       .  D
C1030      C1225   1.365   1_556  D
C1030      C1068   1.488       .  S
O1035     Cr1053   1.966       .  S
O1035      C1043   1.258       .  A
O1036      C1429   1.269       .  A
C1037      C1061   1.490       .  S
C1037      O1428   1.270   1_545  A
C1037      O1038   1.256       .  A
O1038     Cr1054   1.961       .  S
O1039     Cr1054   2.023       .  S
O1039      C1040   1.270       .  A
O1041     Cr1447   1.971   1_545  S
O1042     Cr1055   2.012       .  S
O1042      C1043   1.265       .  A
C1043      C1111   1.487       .  S
O1044     Cr1053   2.024       .  S
O1044      C1052   1.270       .  A
O1045      C1438   1.258       .  A
C1046      C1071   1.491       .  S
C1046      O1437   1.257       .  A
C1046      O1047   1.270   1_565  A
O1047     Cr1054   2.025       .  S
O1048     Cr1054   1.970       .  S
C1049      C1078   1.481       .  S
C1049      O1050   1.266   1_455  A
O1050     Cr1447   2.010   1_545  S
O1051     Cr1055   1.966       .  S
O1051      C1052   1.260       .  A
C1052      C1101   1.491       .  S
Cr1053     O1448   1.767       .  S
Cr1055     O1433   1.968       .  S
Cr1055     O1442   2.011       .  S
Cr1055     O1448   1.768       .  S
O1056     Cr1445   1.767       .  S
O1056     Cr1447   1.768       .  S
C1057      C1058   1.419   1_565  A
C1057      C1062   1.400       .  A
C1057      F1064   1.355       .  S
C1058      C1451   1.411       .  A
C1059      C1450   1.412       .  A
C1059      C1060   1.397       .  A
C1059      F1066   1.358       .  S
C1060      C1453   1.411       .  A
C1060      F1065   1.358       .  S
C1061      C1452   1.411       .  A
C1061      C1062   1.406   1_545  A
C1062      F1063   1.358       .  S
C1067      C1460   1.406       .  A
C1067      C1072   1.403       .  A
C1067      F1074   1.356       .  S
C1068      C1459   1.406   1_565  A
C1068      C1069   1.405       .  A
C1069      C1070   1.397       .  A
C1069      F1076   1.358       .  S
C1070      C1071   1.413       .  A
C1070      F1075   1.358       .  S
C1071      C1464   1.411   1_565  A
C1072      C1463   1.411       .  A
C1072      F1073   1.358       .  S
C1077      C1078   1.409   1_655  A
C1077      C1082   1.398       .  A
C1077      F1084   1.358       .  S
C1079      C1080   1.398       .  A
C1079      F1086   1.358       .  S
C1080      F1085   1.357       .  S
C1081      C1082   1.401   1_455  A
C1082      F1083   1.356       .  S
C1087      C1092   1.403       .  A
C1087      F1094   1.354       .  S
C1088      C1089   1.414   1_455  A
C1089      C1090   1.398       .  A
C1089      F1096   1.358       .  S
C1090      C1091   1.409       .  A
C1090      F1095   1.358       .  S
C1092      F1093   1.358       .  S
C1097      C1098   1.403       .  A
C1097      C1102   1.403       .  A
C1097      F1104   1.358       .  S
C1098      C1099   1.402       .  A
C1099      C1100   1.395       .  A
C1099      F1106   1.358       .  S
C1100      C1101   1.413       .  A
C1100      F1105   1.358       .  S
C1101      C1102   1.413       .  A
C1102      F1103   1.357       .  S
C1107      C1108   1.414       .  A
C1107      C1112   1.391       .  A
C1107      F1114   1.359       .  S
C1108      C1109   1.416       .  A
C1109      C1110   1.403       .  A
C1109      F1116   1.353       .  S
C1110      C1111   1.409       .  A
C1110      F1115   1.358       .  S
C1111      C1112   1.406       .  A
C1112      F1113   1.358       .  S
C1117      C1118   1.405       .  A
C1117      C1122   1.402       .  A
C1118      C1119   1.408       .  A
C1119      C1120   1.397       .  A
C1119      F1126   1.358       .  S
C1120      C1121   1.405       .  A
C1120      F1125   1.358       .  S
C1121      C1122   1.405       .  A
C1122      F1123   1.355       .  S
C1127      C1128   1.409       .  A
C1127      C1132   1.389       .  A
C1127      F1134   1.358       .  S
C1129      C1130   1.407       .  A
C1129      F1136   1.357       .  S
C1130      F1135   1.357       .  S
C1131      C1132   1.407       .  A
C1132      F1133   1.358       .  S
C1137      C1142   1.401       .  A
C1137      F1144   1.358       .  S
C1138      C1139   1.407       .  A
C1139      C1140   1.397       .  A
C1139      F1146   1.358       .  S
C1140      C1141   1.404       .  A
C1140      F1145   1.358       .  S
C1142      F1143   1.358       .  S
C1147      C1148   1.413       .  A
C1147      C1152   1.400       .  A
C1147      F1154   1.358       .  S
C1148      C1149   1.412       .  A
C1149      C1150   1.398       .  A
C1150      C1151   1.401       .  A
C1150      F1155   1.358       .  S
C1151      C1152   1.401       .  A
C1152      F1153   1.357       .  S
C1157      C1162   1.401       .  A
C1157      F1164   1.358       .  S
C1158      C1159   1.408       .  A
C1159      C1160   1.395       .  A
C1159      F1166   1.358       .  S
C1160      C1161   1.412       .  A
C1160      F1165   1.358       .  S
C1162      F1163   1.356       .  S
C1167      C1168   1.406       .  A
C1167      C1172   1.396       .  A
C1167      F1174   1.358       .  S
C1169      C1170   1.402       .  A
C1169      F1176   1.358       .  S
C1170      F1175   1.354       .  S
C1171      C1172   1.406       .  A
C1172      F1173   1.358       .  S
C1177      C1374   1.400       .  A
C1177      C1182   1.402       .  A
C1177      C1560   1.478       .  S
C1178      C1373   1.400       .  A
C1178      C1179   1.404       .  A
C1178      H1183   1.083       .  S
C1179      C1180   1.407       .  A
C1179      C1354   1.492       .  S
C1180      C1377   1.409       .  A
C1180      H1184   1.081   1_556  S
C1181      C1376   1.409       .  A
C1181      C1182   1.407       .  A
C1181      C1540   1.492       .  S
C1182      H1185   1.084       .  S
C1186      C1187   1.406       .  A
C1186      C1191   1.408       .  A
C1186      C1327   1.492       .  S
C1187      C1188   1.407       .  A
C1187      H1192   1.084       .  S
C1188      C1189   1.404       .  A
C1188      C1334   1.481       .  S
C1189      C1190   1.402       .  A
C1189      H1193   1.084       .  S
C1190      C1191   1.400       .  A
C1190      C1314   1.482       .  S
C1191      H1194   1.083       .  S
C1195      C1196   1.543       .  S
C1195      C1201   1.536       .  S
C1195      C1199   1.534       .  S
C1195      C1304   1.535       .  S
C1196      H1203   1.079       .  S
C1196      C1197   1.368       .  D
C1197      C1394   1.540   1_554  S
C1197      C1337   1.477       .  S
C1198      C1393   1.540       .  S
C1198      C1202   1.532       .  S
C1198      C1396   1.546       .  S
C1198      H1204   1.109       .  S
C1199      H1205   1.085       .  S
C1199      C1200   1.367       .  D
C1200      C1394   1.546   1_554  S
C1200      C1357   1.494       .  S
C1201      H1206   1.087       .  S
C1201      C1398   1.360   1_554  D
C1202      C1397   1.360       .  D
C1202      C1294   1.479       .  S
C1207      C1213   1.532       .  S
C1207      C1211   1.540   1_455  S
C1207      C1284   1.539       .  S
C1208      H1215   1.080       .  S
C1208      C1209   1.369       .  D
C1209      C1317   1.481   1_554  S
C1210      C1214   1.537       .  S
C1210      C1408   1.541   1_455  S
C1211      H1217   1.086       .  S
C1211      C1212   1.368       .  D
C1212      C1406   1.541   1_654  S
C1212      C1367   1.485       .  S
C1213      H1218   1.087       .  S
C1213      C1410   1.359   1_554  D
C1214      C1409   1.359       .  D
C1214      C1277   1.473       .  S
C1219      C1223   1.537       .  S
C1219      C1254   1.536       .  S
C1220      H1227   1.082       .  S
C1220      C1221   1.368       .  D
C1221      C1324   1.492       .  S
C1222      C1226   1.540       .  S
C1222      C1420   1.542       .  S
C1222      H1228   1.109       .  S
C1223      H1229   1.086       .  S
C1223      C1224   1.365       .  D
C1224      C1418   1.542   1_554  S
C1224      C1347   1.474   1_554  S
C1225      H1230   1.086       .  S
C1226      C1264   1.488       .  S
O1231     Cr1249   1.966       .  S
O1231      C1239   1.258       .  A
C1233      C1257   1.491       .  S
C1233      O1234   1.257       .  A
O1234     Cr1250   1.962       .  S
O1235     Cr1250   2.022       .  S
O1235      C1236   1.270       .  A
O1238     Cr1251   2.011       .  S
O1238      C1239   1.265       .  A
C1239      C1307   1.486       .  S
O1240     Cr1249   2.025       .  S
O1240      C1248   1.270       .  A
C1242      C1267   1.491       .  S
C1242      O1243   1.270       .  A
O1243     Cr1250   2.024       .  S
O1244     Cr1250   1.970       .  S
C1245      C1274   1.482       .  S
C1245      O1246   1.266   1_455  A
O1247     Cr1251   1.966       .  S
O1247      C1248   1.260       .  A
C1248      C1297   1.492       .  S
C1253      C1254   1.419       .  A
C1253      C1258   1.400       .  A
C1253      F1260   1.356       .  S
C1255      C1256   1.397       .  A
C1255      F1262   1.358       .  S
C1256      F1261   1.358       .  S
C1257      C1258   1.406       .  A
C1258      F1259   1.358       .  S
C1263      C1268   1.403       .  A
C1263      F1270   1.356       .  S
C1264      C1265   1.405       .  A
C1265      C1266   1.397       .  A
C1265      F1272   1.358       .  S
C1266      C1267   1.412       .  A
C1266      F1271   1.358       .  S
C1268      F1269   1.358       .  S
C1273      C1274   1.410   1_655  A
C1273      C1278   1.398       .  A
C1273      F1280   1.358       .  S
C1275      C1276   1.398       .  A
C1275      F1282   1.358       .  S
C1276      F1281   1.358       .  S
C1277      C1278   1.401   1_455  A
C1278      F1279   1.356       .  S
C1283      C1288   1.403       .  A
C1283      F1290   1.353       .  S
C1284      C1285   1.414   1_455  A
C1285      C1286   1.396       .  A
C1285      F1292   1.359       .  S
C1286      C1287   1.408   1_655  A
C1286      F1291   1.358       .  S
C1288      F1289   1.358       .  S
C1293      C1294   1.403       .  A
C1293      C1298   1.404       .  A
C1293      F1300   1.358       .  S
C1294      C1295   1.401       .  A
C1295      C1296   1.395       .  A
C1295      F1302   1.358       .  S
C1296      C1297   1.413       .  A
C1296      F1301   1.358       .  S
C1297      C1298   1.414       .  A
C1298      F1299   1.357       .  S
C1303      C1304   1.414       .  A
C1303      C1308   1.391       .  A
C1303      F1310   1.359       .  S
C1304      C1305   1.416       .  A
C1305      C1306   1.402       .  A
C1305      F1312   1.352       .  S
C1306      C1307   1.409       .  A
C1306      F1311   1.358       .  S
C1307      C1308   1.405       .  A
C1308      F1309   1.358       .  S
C1313      C1314   1.405       .  A
C1313      C1318   1.402       .  A
C1313      F1516   1.357       .  S
C1314      C1315   1.408   1_556  A
C1315      C1316   1.397       .  A
C1315      F1322   1.358       .  S
C1316      C1317   1.404   1_554  A
C1316      F1321   1.358       .  S
C1317      C1318   1.405       .  A
C1318      F1319   1.356       .  S
F1320      C1509   1.357       .  S
C1323      C1324   1.409       .  A
C1323      C1328   1.389       .  A
C1323      F1330   1.358       .  S
C1324      C1521   1.409   1_554  A
C1325      C1520   1.409       .  A
C1325      C1326   1.407       .  A
C1325      F1332   1.357       .  S
C1326      C1523   1.411       .  A
C1326      F1331   1.357       .  S
C1327      C1522   1.411       .  A
C1327      C1328   1.407   1_556  A
C1328      F1329   1.358       .  S
C1333      C1530   1.406       .  A
C1333      C1338   1.401       .  A
C1333      F1340   1.358       .  S
C1334      C1529   1.406       .  A
C1334      C1335   1.407   1_556  A
C1335      C1336   1.398       .  A
C1335      F1342   1.358       .  S
C1336      C1337   1.404       .  A
C1336      F1341   1.358       .  S
C1337      C1534   1.404   1_554  A
C1338      C1533   1.404       .  A
C1338      F1339   1.357       .  S
C1343      C1344   1.412       .  A
C1343      C1348   1.401       .  A
C1343      F1350   1.358       .  S
C1344      C1345   1.411   1_556  A
C1344      C1377   1.492       .  S
C1345      C1346   1.397       .  A
C1345      F1548   1.357       .  S
C1346      C1347   1.401   1_554  A
C1346      F1351   1.358       .  S
C1347      C1348   1.402       .  A
C1348      F1349   1.357       .  S
F1352      C1541   1.357       .  S
C1353      C1550   1.409       .  A
C1353      C1358   1.400       .  A
C1353      F1360   1.358       .  S
C1354      C1549   1.409       .  A
C1354      C1355   1.409   1_556  A
C1355      C1356   1.395       .  A
C1355      F1362   1.358       .  S
C1356      C1357   1.412       .  A
C1356      F1361   1.358       .  S
C1357      C1554   1.408   1_554  A
C1358      C1553   1.408       .  A
C1358      F1359   1.356       .  S
C1363      C1364   1.405   1_554  A
C1363      C1368   1.395       .  A
C1363      F1370   1.358       .  S
C1364      C1561   1.404       .  A
C1364      C1373   1.478       .  S
C1365      C1560   1.404       .  A
C1365      C1366   1.402       .  A
C1365      F1372   1.358       .  S
C1366      C1563   1.407       .  A
C1366      F1371   1.354       .  S
C1367      C1562   1.407   1_554  A
C1367      C1368   1.407       .  A
C1368      F1369   1.358       .  S
C1373      C1378   1.402       .  A
C1374      C1375   1.404       .  A
C1374      H1379   1.083       .  S
C1375      C1376   1.407       .  A
C1375      C1550   1.492       .  S
C1376      H1380   1.081       .  S
C1377      C1378   1.407       .  A
C1378      H1381   1.084       .  S
C1382      C1383   1.406       .  A
C1382      C1387   1.408       .  A
C1382      C1523   1.492       .  S
C1383      C1384   1.407       .  A
C1383      H1388   1.084       .  S
C1384      C1385   1.404       .  A
C1384      C1530   1.481       .  S
C1385      C1386   1.402       .  A
C1385      H1389   1.084       .  S
C1386      C1387   1.400       .  A
C1386      C1510   1.482       .  S
C1387      H1390   1.083       .  S
C1391      C1392   1.543       .  S
C1391      C1397   1.536       .  S
C1391      C1395   1.534       .  S
C1391      C1500   1.535       .  S
C1392      H1399   1.079       .  S
C1392      C1393   1.368       .  D
C1393      C1533   1.477       .  S
C1394      C1398   1.532       .  S
C1394      H1400   1.109       .  S
C1395      H1401   1.085       .  S
C1395      C1396   1.367       .  D
C1396      C1553   1.494       .  S
C1397      H1402   1.087       .  S
C1398      C1490   1.479       .  S
C1403      C1409   1.532       .  S
C1403      C1407   1.540   1_455  S
C1403      C1480   1.539       .  S
C1404      H1411   1.080       .  S
C1404      C1405   1.369       .  D
C1405      C1513   1.481       .  S
C1406      C1410   1.537       .  S
C1407      H1413   1.086       .  S
C1407      C1408   1.368       .  D
C1408      C1563   1.485       .  S
C1409      H1414   1.087       .  S
C1410      C1473   1.473       .  S
C1415      C1419   1.537       .  S
C1415      C1450   1.536       .  S
C1416      H1423   1.082       .  S
C1416      C1417   1.368       .  D
C1417      C1520   1.492       .  S
C1418      C1422   1.540       .  S
C1418      H1424   1.109       .  S
C1419      H1425   1.086       .  S
C1419      C1420   1.365       .  D
C1420      C1543   1.474       .  S
C1421      H1426   1.086       .  S
C1422      C1460   1.488       .  S
O1427     Cr1445   1.966       .  S
O1427      C1435   1.258       .  A
C1429      C1453   1.491       .  S
C1429      O1430   1.257       .  A
O1430     Cr1446   1.962       .  S
O1431     Cr1446   2.022       .  S
O1431      C1432   1.270       .  A
O1434     Cr1447   2.011       .  S
O1434      C1435   1.265       .  A
C1435      C1503   1.486       .  S
O1436     Cr1445   2.025       .  S
O1436      C1444   1.270       .  A
C1438      C1463   1.491       .  S
C1438      O1439   1.270       .  A
O1439     Cr1446   2.024       .  S
O1440     Cr1446   1.970       .  S
C1441      C1470   1.482       .  S
C1441      O1442   1.266   1_455  A
O1443     Cr1447   1.966       .  S
O1443      C1444   1.260       .  A
C1444      C1493   1.492       .  S
C1449      C1450   1.419       .  A
C1449      C1454   1.400       .  A
C1449      F1456   1.356       .  S
C1451      C1452   1.397       .  A
C1451      F1458   1.358       .  S
C1452      F1457   1.358       .  S
C1453      C1454   1.406       .  A
C1454      F1455   1.358       .  S
C1459      C1464   1.403       .  A
C1459      F1466   1.356       .  S
C1460      C1461   1.405       .  A
C1461      C1462   1.397       .  A
C1461      F1468   1.358       .  S
C1462      C1463   1.412       .  A
C1462      F1467   1.358       .  S
C1464      F1465   1.358       .  S
C1469      C1470   1.410   1_655  A
C1469      C1474   1.398       .  A
C1469      F1476   1.358       .  S
C1471      C1472   1.398       .  A
C1471      F1478   1.358       .  S
C1472      F1477   1.358       .  S
C1473      C1474   1.401   1_455  A
C1474      F1475   1.356       .  S
C1479      C1484   1.403       .  A
C1479      F1486   1.353       .  S
C1480      C1481   1.414   1_455  A
C1481      C1482   1.396       .  A
C1481      F1488   1.359       .  S
C1482      C1483   1.408   1_655  A
C1482      F1487   1.358       .  S
C1484      F1485   1.358       .  S
C1489      C1490   1.403       .  A
C1489      C1494   1.404       .  A
C1489      F1496   1.358       .  S
C1490      C1491   1.401       .  A
C1491      C1492   1.395       .  A
C1491      F1498   1.358       .  S
C1492      C1493   1.413       .  A
C1492      F1497   1.358       .  S
C1493      C1494   1.414       .  A
C1494      F1495   1.357       .  S
C1499      C1500   1.414       .  A
C1499      C1504   1.391       .  A
C1499      F1506   1.359       .  S
C1500      C1501   1.416       .  A
C1501      C1502   1.402       .  A
C1501      F1508   1.352       .  S
C1502      C1503   1.409       .  A
C1502      F1507   1.358       .  S
C1503      C1504   1.405       .  A
C1504      F1505   1.358       .  S
C1509      C1510   1.405       .  A
C1509      C1514   1.402       .  A
C1510      C1511   1.408       .  A
C1511      C1512   1.397       .  A
C1511      F1518   1.358       .  S
C1512      C1513   1.404       .  A
C1512      F1517   1.358       .  S
C1513      C1514   1.405       .  A
C1514      F1515   1.356       .  S
C1519      C1520   1.409       .  A
C1519      C1524   1.389       .  A
C1519      F1526   1.358       .  S
C1521      C1522   1.407       .  A
C1521      F1528   1.357       .  S
C1522      F1527   1.357       .  S
C1523      C1524   1.407       .  A
C1524      F1525   1.358       .  S
C1529      C1534   1.401       .  A
C1529      F1536   1.358       .  S
C1530      C1531   1.407       .  A
C1531      C1532   1.398       .  A
C1531      F1538   1.358       .  S
C1532      C1533   1.404       .  A
C1532      F1537   1.358       .  S
C1534      F1535   1.357       .  S
C1539      C1540   1.412       .  A
C1539      C1544   1.401       .  A
C1539      F1546   1.358       .  S
C1540      C1541   1.411       .  A
C1541      C1542   1.397       .  A
C1542      C1543   1.401       .  A
C1542      F1547   1.358       .  S
C1543      C1544   1.402       .  A
C1544      F1545   1.357       .  S
C1549      C1554   1.400       .  A
C1549      F1556   1.358       .  S
C1550      C1551   1.409       .  A
C1551      C1552   1.395       .  A
C1551      F1558   1.358       .  S
C1552      C1553   1.412       .  A
C1552      F1557   1.358       .  S
C1554      F1555   1.356       .  S
C1559      C1560   1.405       .  A
C1559      C1564   1.395       .  A
C1559      F1566   1.358       .  S
C1561      C1562   1.402       .  A
C1561      F1568   1.358       .  S
C1562      F1567   1.354       .  S
C1563      C1564   1.407       .  A
C1564      F1565   1.358       .  S
