geometry optimzed in LAMMPS
_audit_creation_date              2020-11-30 
_audit_creation_method            'lammps2cif' 
_symmetry_space_group_name_H-M    'P1' 
_symmetry_Int_Tables_number       1 
_symmetry_cell_setting            triclinic 
loop_ 
_symmetry_equiv_pos_as_xyz 
  x,y,z 
_cell_length_a                    37.75710978 
_cell_length_b                    37.152953828853406 
_cell_length_c                    26.38357770792177 
_cell_angle_alpha                 90.41217425464477 
_cell_angle_beta                  89.62795986260271 
_cell_angle_gamma                 91.43935352976004 
loop_ 
_atom_site_label 
_atom_site_type_symbol 
_atom_site_fract_x 
_atom_site_fract_y 
_atom_site_fract_z 
_atom_site_charge 
C1          C  0.66340286  0.47320075  0.62639772    -0.02900
C2          C  0.65615853  0.30204030  0.62030396    -0.02900
C3          C  0.64751045  0.03768482  0.41275596    -0.02900
C4          C  0.64962882  0.21037591  0.41153171    -0.02900
In5        In  0.47843898  0.99194712  0.81294219     1.36900
C6          C  0.42219533  0.98553803  0.75311877     0.77200
O7          O  0.46555989  0.04764249  0.83485053    -0.61300
O8          O  0.51893388  0.03141115  0.84327431    -0.52200
C9          C  0.46945094  0.96561568  0.90600930     0.69800
O10         O  0.45188112  0.99093296  0.88861815    -0.47100
C11         C  0.53262784  0.98074082  0.74980300     0.74500
O12         O  0.43492644  0.95852698  0.77480193    -0.58900
O13         O  0.51244533  0.00699590  0.74638170    -0.49000
O14         O  0.43786596  0.01487651  0.76303030    -0.55300
C15         C  0.49688032  0.05620466  0.84681734     0.84700
O16         O  0.48900700  0.95052605  0.87349055    -0.57200
O17         O  0.52257275  0.45669254  0.78012108    -0.60500
In18       In  0.47466689  0.49005640  0.22301237     1.36900
C19         C  0.41642249  0.01732213  0.25908110     0.77200
O20         O  0.46027479  0.43647343  0.25305181    -0.61300
O21         O  0.47882047  0.47711733  0.30516491    -0.52200
C22         C  0.47366957  0.97453684  0.12325426     0.69800
O23         O  0.46208146  0.00346612  0.14166217    -0.47100
C24         C  0.53977442  0.01290553  0.25047241     0.74500
O25         O  0.44334309  0.03724145  0.24936053    -0.58900
O26         O  0.53109848  0.47866512  0.24100495    -0.49000
O27         O  0.41721903  0.48615892  0.24165429    -0.55300
C28         C  0.46746722  0.44538691  0.29836485     0.84700
O29         O  0.48304991  0.45272625  0.15613903    -0.57200
O30         O  0.51588102  0.03460658  0.23845993    -0.60500
In31       In  0.47836440  0.26996887  0.82607634     1.36900
C32         C  0.53158398  0.28061175  0.76011374     0.77200
O33         O  0.51538885  0.23191330  0.86225972    -0.61300
O34         O  0.46800468  0.21129954  0.82782118    -0.52200
C35         C  0.47389535  0.29510039  0.92081989     0.69800
O36         O  0.49729693  0.30633186  0.89008416    -0.47100
C37         C  0.41971083  0.27922367  0.77240159     0.74500
O38         O  0.52150205  0.30510724  0.79010776    -0.58900
O39         O  0.42569331  0.25078933  0.79596381    -0.49000
O40         O  0.51315430  0.25201780  0.76211732    -0.55300
C41         C  0.49621798  0.20489929  0.85089575     0.84700
O42         O  0.45045214  0.27500534  0.90107704    -0.57200
O43         O  0.44270510  0.30415602  0.77891769    -0.60500
In44       In  0.46978812  0.27212692  0.23673174     1.36900
C45         C  0.52965319  0.24760021  0.27553088     0.77200
O46         O  0.47487375  0.32762352  0.26601016    -0.61300
O47         O  0.45699904  0.28646149  0.31710159    -0.52200
C48         C  0.47355053  0.28585840  0.13785988     0.69800
O49         O  0.47860810  0.25500067  0.15569470    -0.47100
C50         C  0.40547192  0.24479409  0.25433572     0.74500
O51         O  0.52772726  0.27859456  0.25692863    -0.58900
O52         O  0.41138545  0.27799764  0.24809877    -0.49000
O53         O  0.50252712  0.22764192  0.26855082    -0.55300
C54         C  0.46474496  0.31915645  0.31028687     0.84700
O55         O  0.46705026  0.30968284  0.17052520    -0.57200
O56         O  0.43149061  0.22547356  0.24336228    -0.60500
C57         C  0.30110127  0.47190927  0.61737411    -0.02900
C58         C  0.30545925  0.30210100  0.62209202    -0.02900
C59         C  0.29789607  0.04676452  0.40427444    -0.02900
C60         C  0.29967232  0.21821274  0.41810440    -0.02900
C61         C  0.16017308  0.04887426  0.63024131    -0.02900
C62         C  0.16483187  0.22128896  0.62589062    -0.02900
C63         C  0.15358180  0.47046248  0.42039140    -0.02900
C64         C  0.15313108  0.29883166  0.41547281    -0.02900
In65       In  0.97874838  0.52648323  0.82975749     1.36900
C66         C  0.03390009  0.03482803  0.76415012     0.77200
O67         O  0.01657008  0.48867143  0.86379154    -0.61300
O68         O  0.96673930  0.46841041  0.83601175    -0.52200
C69         C  0.96809881  0.04430883  0.92380765     0.69800
O70         O  0.99037692  0.06168218  0.89685464    -0.47100
C71         C  0.92416902  0.04469574  0.77094319     0.74500
O72         O  0.02838459  0.05728553  0.79958814    -0.58900
O73         O  0.93205200  0.51201940  0.78258041    -0.49000
O74         O  0.01191052  0.50938593  0.76430193    -0.55300
C75         C  0.99588361  0.46196515  0.85696609     0.84700
O76         O  0.94793532  0.52085187  0.90160131    -0.57200
O77         O  0.94439494  0.06866764  0.79035043    -0.60500
In78       In  0.96954493  0.01673365  0.24063865     1.36900
C79         C  0.02152404  0.98609537  0.29076861     0.77200
O80         O  0.00850949  0.06157879  0.25431210    -0.61300
O81         O  0.96070622  0.06066028  0.29629671    -0.52200
C82         C  0.96482567  0.02511079  0.14072358     0.69800
O83         O  0.97222848  0.99519580  0.16016141    -0.47100
C84         C  0.90636558  0.99685157  0.27304628     0.74500
O85         O  0.02535542  0.99730970  0.24594230    -0.58900
O86         O  0.91478587  0.02915058  0.26367176    -0.49000
O87         O  0.98985137  0.98437430  0.30595128    -0.55300
C88         C  0.99072209  0.07523262  0.28974986     0.84700
O89         O  0.95921116  0.04992411  0.17214717    -0.57200
O90         O  0.93012210  0.47202366  0.26283565    -0.60500
In91       In  0.97750348  0.25249724  0.81161290     1.36900
C92         C  0.91851497  0.24588011  0.75711424     0.77200
O93         O  0.96875975  0.31010177  0.82313240    -0.61300
O94         O  0.01763084  0.28914544  0.84865481    -0.52200
C95         C  0.97086870  0.23107133  0.90736157     0.69800
O96         O  0.94771604  0.24884989  0.88528789    -0.47100
C97         C  0.03062222  0.24041422  0.74714887     0.74500
O98         O  0.93659351  0.21881748  0.76819442    -0.58900
O99         O  0.01619244  0.27044715  0.75164331    -0.49000
O100        O  0.93039874  0.27530775  0.77447757    -0.55300
C101        C  0.99773077  0.31571459  0.84569398     0.84700
O102        O  0.99408241  0.21866557  0.87795521    -0.57200
O103        O  0.01596118  0.21546881  0.77290260    -0.60500
In104      In  0.98517878  0.26034175  0.22359678     1.36900
C105        C  0.92258583  0.27345374  0.26463055     0.77200
O106        O  0.00451276  0.20606509  0.23821361    -0.61300
O107        O  0.99268880  0.23989478  0.30171864    -0.52200
C108        C  0.97708194  0.24934340  0.12462654     0.69800
O109        O  0.98717680  0.27951276  0.14263990    -0.47100
C110        C  0.04569083  0.29043871  0.25129467     0.74500
O111        O  0.94375995  0.29879837  0.25169815    -0.58900
O112        O  0.04375790  0.26178768  0.22564975    -0.49000
O113        O  0.93232763  0.24245718  0.25232675    -0.55300
C114        C  0.00348727  0.21008167  0.28583514     0.84700
O115        O  0.96994218  0.22566534  0.15715985    -0.57200
O116        O  0.01716472  0.30769361  0.25237322    -0.60500
C117        C  0.80514963  0.05413618  0.62302872    -0.02900
C118        C  0.79837358  0.22752047  0.61850364    -0.02900
C119        C  0.79270728  0.45917585  0.42108136    -0.02900
C120        C  0.79478964  0.28607918  0.39646241    -0.02900
C121        C  0.76592672  0.38784920  0.42864028    -0.02300
C122        C  0.79422889  0.41329398  0.41733409     0.07400
C123        C  0.81909478  0.39251465  0.38546205    -0.02400
C124        C  0.81038379  0.35635982  0.36687994    -0.02400
C125        C  0.79020381  0.33076451  0.39803051     0.07500
C126        C  0.77513290  0.35109392  0.43870527    -0.02600
Br127      Br  0.79783662  0.34507367  0.50184959    -0.01100
Br128      Br  0.72768717  0.38686552  0.37998499    -0.01200
Br129      Br  0.82098416  0.34877719  0.29586080    -0.01200
Br130      Br  0.86890738  0.40292160  0.37479724    -0.01100
C131        C  0.83098045  0.24976276  0.47271663    -0.02300
C132        C  0.80113178  0.26983253  0.45331292     0.07400
C133        C  0.77157296  0.26885527  0.48697505    -0.02400
C134        C  0.77163692  0.25031079  0.53291116    -0.02400
C135        C  0.80271360  0.24105932  0.55950694     0.07500
C136        C  0.83298394  0.23860116  0.52553970    -0.02600
Br137      Br  0.87259320  0.20779272  0.54196936    -0.01100
Br138      Br  0.86640956  0.22826353  0.42865702    -0.01200
Br139      Br  0.72951712  0.22216199  0.54298578    -0.01200
Br140      Br  0.72665447  0.28833018  0.46959381    -0.01100
C141        C  0.82296044  0.99464306  0.56420043    -0.02300
C142        C  0.81177086  0.03176428  0.56844919     0.07400
C143        C  0.79931474  0.04299752  0.51988829    -0.02400
C144        C  0.80195273  0.02217997  0.47424720    -0.02400
C145        C  0.80146989  0.48285503  0.47423722     0.07500
C146        C  0.81238652  0.47033653  0.52328188    -0.02600
Br147      Br  0.82459008  0.42174559  0.53080084    -0.01100
Br148      Br  0.86387570  0.97818804  0.60170622    -0.01200
Br149      Br  0.81795825  0.55114219  0.41796863    -0.01200
Br150      Br  0.77183313  0.08368707  0.50929827    -0.01100
C151        C  0.81850762  0.12293538  0.58035734    -0.02300
C152        C  0.80677386  0.09956646  0.62122204     0.07400
C153        C  0.79890153  0.12219569  0.66497024    -0.02400
C154        C  0.80337742  0.16107171  0.66574286    -0.02400
C155        C  0.80133346  0.18255596  0.62030793     0.07500
C156        C  0.80638409  0.15921594  0.57671189    -0.02600
Br157      Br  0.79351365  0.16947982  0.50846507    -0.01100
Br158      Br  0.85156267  0.11178253  0.52593407    -0.01200
Br159      Br  0.81085620  0.18059862  0.73263883    -0.01200
Br160      Br  0.77289341  0.10506469  0.72287002    -0.01100
C161        C  0.89203970  0.29561829  0.34229276    -0.02300
C162        C  0.88996819  0.27850936  0.29503365     0.07400
C163        C  0.85797006  0.26232512  0.27948789    -0.02400
C164        C  0.82721370  0.26322728  0.31058749     0.02400
C165        C  0.82825363  0.28042653  0.36037256     0.07500
C166        C  0.86196659  0.29735944  0.37422690    -0.02600
Br167      Br  0.87045060  0.32125401  0.43893473    -0.01100
Br168      Br  0.93781329  0.31393317  0.36536167    -0.01200
Br169      Br  0.78567685  0.24328249  0.27635937    -0.01200
Br170      Br  0.85652935  0.24058990  0.21225093    -0.01100
C171        C  0.86455200  0.24446042  0.63940228    -0.02300
C172        C  0.82878053  0.24430595  0.65521513     0.07400
C173        C  0.82458595  0.25713460  0.70749944    -0.02400
C174        C  0.85467279  0.25915887  0.74004406    -0.02400
C175        C  0.88696340  0.24440749  0.72414649     0.07500
C176        C  0.89068933  0.23437943  0.67332948    -0.02600
Br177      Br  0.93551222  0.21887909  0.64693707    -0.01100
Br178      Br  0.88152524  0.28605405  0.60193825    -0.01200
Br179      Br  0.85115186  0.27822579  0.80847506    -0.01200
Br180      Br  0.78034121  0.26650336  0.74308317    -0.01100
C181        C  0.00687275  0.24235312  0.04087981    -0.02300
C182        C  0.97545403  0.24158567  0.06970393     0.07400
C183        C  0.94306178  0.23223489  0.04630386    -0.02400
C184        C  0.94165779  0.22674032  0.99337079    -0.02400
C185        C  0.97287659  0.22971486  0.96362201     0.07500
C186        C  0.00568632  0.23719989  0.98798376    -0.02600
Br187      Br  0.04901850  0.24432322  0.94962344    -0.01100
Br188      Br  0.05190147  0.24864501  0.07474821    -0.01200
Br189      Br  0.89665494  0.21539113  0.96200595    -0.01200
Br190      Br  0.90055636  0.22742412  0.08681166    -0.01100
C191        C  0.85768714  0.48214298  0.39597113    -0.02300
C192        C  0.82242131  0.47024444  0.38095191     0.07400
C193        C  0.81833955  0.46222614  0.32743091    -0.02400
C194        C  0.84549684  0.47117905  0.29196374    -0.02400
C195        C  0.87729626  0.48700894  0.30845689     0.07500
C196        C  0.88296953  0.49313745  0.35995141    -0.02600
Br197      Br  0.92822485  0.01298553  0.38109376    -0.01100
Br198      Br  0.87921374  0.47448064  0.46135994    -0.01200
Br199      Br  0.83990440  0.46202933  0.22026024    -0.01200
Br200      Br  0.77695820  0.43745758  0.29979068    -0.01100
C201        C  0.04075855  0.15977701  0.30746907    -0.02300
C202        C  0.01136206  0.18059098  0.31929208     0.07400
C203        C  0.98283135  0.16522266  0.34632114    -0.02400
C204        C  0.97864064  0.12774655  0.34645402    -0.02400
C205        C  0.00306889  0.10711616  0.31860583     0.07500
C206        C  0.03685762  0.12229237  0.30793050    -0.02600
Br207      Br  0.07650000  0.09256182  0.29115731    -0.01100
Br208      Br  0.08383507  0.18282489  0.28390010    -0.01200
Br209      Br  0.93849357  0.10628489  0.38124331    -0.01200
Br210      Br  0.94618051  0.19514267  0.37315691    -0.01100
C211        C  0.89857555  0.06458874  0.68967696    -0.02300
C212        C  0.89328115  0.05201710  0.73850898     0.07400
C213        C  0.85962189  0.03987643  0.75331454    -0.02400
C214        C  0.83049843  0.03993878  0.71918551    -0.02400
C215        C  0.83592410  0.04823969  0.66493666     0.07500
C216        C  0.87229873  0.05885279  0.65243008    -0.02600
Br217      Br  0.89321196  0.05764034  0.58585444    -0.01100
Br218      Br  0.94367791  0.08822024  0.67368579    -0.01200
Br219      Br  0.78656920  0.02745009  0.75585066    -0.01200
Br220      Br  0.85416475  0.52523505  0.82446038    -0.01100
C221        C  0.03371144  0.40895544  0.84637688    -0.02300
C222        C  0.00493898  0.42550209  0.87057148     0.07400
C223        C  0.98084703  0.40516618  0.90018585    -0.02400
C224        C  0.98147135  0.36763568  0.89763956    -0.02400
C225        C  0.00668025  0.35107783  0.86646898     0.07500
C226        C  0.03505892  0.37126996  0.84555686    -0.02600
Br227      Br  0.07338913  0.34746054  0.81152878    -0.01100
Br228      Br  0.06801930  0.43721003  0.80815901    -0.01200
Br229      Br  0.94647229  0.33868254  0.93361635    -0.01200
Br230      Br  0.94587592  0.42877507  0.94146801    -0.01100
C231        C  0.93438792  0.53963083  0.00951489    -0.02300
C232        C  0.96698550  0.04546309  0.98013474     0.07400
C233        C  0.99885377  0.04288993  0.00778325    -0.02400
C234        C  0.99773825  0.03655583  0.06034831    -0.02400
C235        C  0.96509160  0.03172423  0.08557525     0.07500
C236        C  0.93402750  0.53296932  0.06212441    -0.02600
Br237      Br  0.88966482  0.52950595  0.09874569    -0.01100
Br238      Br  0.89013326  0.54507876  0.97437891    -0.01200
Br239      Br  0.04110502  0.03535486  0.09868195    -0.01200
Br240      Br  0.04434410  0.04494201  0.97394893    -0.01100
C241        C  0.13298057  0.27745906  0.31997661    -0.02300
C242        C  0.12443410  0.29012176  0.37132458     0.07400
C243        C  0.08972678  0.30574448  0.37534479    -0.02400
C244        C  0.06983130  0.31464267  0.33252052    -0.02400
C245        C  0.07617717  0.29784402  0.28603745     0.07500
C246        C  0.10805395  0.27957780  0.27968742    -0.02600
Br247      Br  0.11955318  0.26224425  0.21180414    -0.01100
Br248      Br  0.17902629  0.26196182  0.29537555    -0.01200
Br249      Br  0.03374584  0.35095783  0.33849898    -0.01200
Br250      Br  0.06312739  0.31263969  0.43666945    -0.01100
C251        C  0.17196266  0.40395612  0.37968672    -0.02300
C252        C  0.15294090  0.42586438  0.41680579     0.07400
C253        C  0.12697300  0.40380172  0.44256881    -0.02400
C254        C  0.13177678  0.36609332  0.45039144    -0.02400
C255        C  0.15162976  0.34389877  0.41497604     0.07500
C256        C  0.16354849  0.36614185  0.37310792    -0.02600
Br257      Br  0.17133433  0.34857782  0.30527234    -0.01100
Br258      Br  0.21310181  0.41907296  0.33737310    -0.01200
Br259      Br  0.11160613  0.35132679  0.51489207    -0.01200
Br260      Br  0.08223682  0.42119819  0.46594351    -0.01100
C261        C  0.08130103  0.45984460  0.31167285    -0.02300
C262        C  0.05223307  0.97982514  0.32431315     0.07400
C263        C  0.05589926  0.99826625  0.37059333    -0.02400
C264        C  0.08605907  0.99392234  0.40150217    -0.02400
C265        C  0.11879496  0.47851730  0.38660923     0.07500
C266        C  0.11454605  0.46337224  0.33557865    -0.02600
Br267      Br  0.15102912  0.45432070  0.28668024    -0.01100
Br268      Br  0.07406545  0.42862268  0.25283097    -0.01200
Br269      Br  0.07495739  0.00534470  0.47190268    -0.01200
Br270      Br  0.01922786  0.03056593  0.39205137    -0.01100
C271        C  0.13668284  0.22638738  0.52722285    -0.02300
C272        C  0.16033402  0.23816006  0.56704608     0.07400
C273        C  0.17913420  0.26958128  0.55056384    -0.02400
C274        C  0.16915223  0.29275941  0.51094729    -0.02400
C275        C  0.14509398  0.28212374  0.47209037     0.07500
C276        C  0.12620644  0.24889657  0.48516458    -0.02600
Br277      Br  0.08413130  0.23113334  0.45042286    -0.01100
Br278      Br  0.14001417  0.17790989  0.50479130    -0.01200
Br279      Br  0.19517109  0.33777564  0.50763061    -0.01200
Br280      Br  0.22686898  0.26410985  0.54143334    -0.01100
C281        C  0.09285196  0.21971779  0.73902756    -0.02300
C282        C  0.06377686  0.23587826  0.71720241     0.07400
C283        C  0.06798522  0.25127844  0.66942115    -0.02400
C284        C  0.10154644  0.25210663  0.64503236    -0.02400
C285        C  0.13034881  0.22992437  0.66094286     0.07500
C286        C  0.12385983  0.21333556  0.71006413    -0.02600
Br287      Br  0.15067584  0.17620986  0.73982315    -0.01100
Br288      Br  0.09027178  0.20748446  0.81061583    -0.01200
Br289      Br  0.10587177  0.29067670  0.59892640    -0.01200
Br290      Br  0.02699632  0.27130176  0.63687043    -0.01100
C291        C  0.15027268  0.47361786  0.52652396    -0.02300
C292        C  0.15228982  0.49061121  0.47752151     0.07400
C293        C  0.15253990  0.02926501  0.47770445    -0.02400
C294        C  0.15720929  0.04768389  0.52611718    -0.02400
C295        C  0.15255816  0.03013971  0.57370940     0.07500
C296        C  0.14484821  0.49329149  0.57311985    -0.02600
Br297      Br  0.11200220  0.46690836  0.61645232    -0.01100
Br298      Br  0.16207928  0.42461039  0.54002838    -0.01200
Br299      Br  0.16753942  0.09835278  0.52422530    -0.01200
Br300      Br  0.13894723  0.06116520  0.42417698    -0.01100
C301        C  0.13004377  0.11726378  0.63194038    -0.02300
C302        C  0.16064207  0.09439740  0.63585510     0.07400
C303        C  0.18914070  0.11703194  0.65289518    -0.02400
C304        C  0.19324442  0.15397814  0.63845824    -0.02400
C305        C  0.16472666  0.17646318  0.62368515     0.07500
C306        C  0.13230502  0.15478403  0.61821971    -0.02600
Br307      Br  0.08655018  0.17409319  0.59964512    -0.01100
Br308      Br  0.09522218  0.11587613  0.68644949    -0.01200
Br309      Br  0.24113159  0.16551156  0.62976326    -0.01200
Br310      Br  0.21545265  0.10643056  0.71293412    -0.01100
C311        C  0.09971336  0.03824311  0.75211445    -0.02300
C312        C  0.06573352  0.03590744  0.73100936     0.07400
C313        C  0.06207269  0.03472791  0.67822147    -0.02400
C314        C  0.09175114  0.04098798  0.64650985    -0.02400
C315        C  0.12747923  0.03977961  0.66604116     0.07500
C316        C  0.13028436  0.03879189  0.72071156    -0.02600
Br317      Br  0.17426724  0.03731375  0.75750590    -0.01100
Br318      Br  0.10341952  0.54778258  0.83089505    -0.01200
Br319      Br  0.07982771  0.05933904  0.57976091    -0.01200
Br320      Br  0.01541572  0.02920523  0.64878075    -0.01100
C321        C  0.22607930  0.22009757  0.41083080    -0.02300
C322        C  0.26088851  0.23744917  0.41186230     0.07400
C323        C  0.25931673  0.27630020  0.40969396    -0.02400
C324        C  0.22675230  0.29580772  0.40659440    -0.02400
C325        C  0.19185984  0.27891008  0.40606541     0.07500
C326        C  0.19376117  0.23983599  0.40505870    -0.02600
Br327      Br  0.15270992  0.21029822  0.38544906    -0.01100
Br328      Br  0.21800842  0.16854903  0.41923218    -0.01200
Br329      Br  0.23477445  0.34634478  0.39843684    -0.01200
Br330      Br  0.30279953  0.30536497  0.39997784    -0.01100
C331        C  0.22778655  0.04071655  0.36886774    -0.02300
C332        C  0.26064966  0.02627369  0.38697302     0.07400
C333        C  0.25686681  0.48890658  0.40008964    -0.02400
C334        C  0.22399811  0.47387666  0.41726828    -0.02400
C335        C  0.19095635  0.48705643  0.39918037     0.07500
C336        C  0.19581482  0.01866236  0.36460862    -0.02600
Br337      Br  0.16218288  0.03398136  0.31408921    -0.01100
Br338      Br  0.22227811  0.08968057  0.34969477    -0.01200
Br339      Br  0.22765429  0.43092434  0.45757558    -0.01200
Br340      Br  0.29536323  0.45659939  0.38842268    -0.01100
C341        C  0.30663420  0.11187122  0.45724886    -0.02300
C342        C  0.29820260  0.09148921  0.41083623     0.07400
C343        C  0.29668448  0.11534851  0.36800184    -0.02400
C344        C  0.29084867  0.15314889  0.37319693    -0.02400
C345        C  0.29946638  0.17352405  0.41830055     0.07500
C346        C  0.31312360  0.15042888  0.45762985    -0.02600
Br347      Br  0.34438584  0.16755732  0.51309256    -0.01100
Br348      Br  0.31684200  0.09098640  0.52297094    -0.01200
Br349      Br  0.26805523  0.17441075  0.31566282    -0.01200
Br350      Br  0.30450985  0.10028073  0.29849318    -0.01100
C351        C  0.23075705  0.23375734  0.68117832    -0.02300
C352        C  0.19921256  0.24375934  0.65345472     0.07400
C353        C  0.20029058  0.28179569  0.65325541    -0.02400
C354        C  0.23254241  0.30149111  0.64221351    -0.02400
C355        C  0.26744236  0.28603241  0.64694431     0.07500
C356        C  0.26386847  0.25501409  0.67857261    -0.02600
Br357      Br  0.29940874  0.24793994  0.73017103    -0.01100
Br358      Br  0.22820285  0.20286779  0.73939601    -0.01200
Br359      Br  0.22200508  0.34767211  0.61872374    -0.01200
Br360      Br  0.16480046  0.30668689  0.69194993    -0.01100
C361        C  0.30064688  0.24240170  0.56564176    -0.02300
C362        C  0.31175376  0.27918160  0.56954089     0.07400
C363        C  0.33497180  0.28838522  0.52766087    -0.02400
C364        C  0.33767676  0.26531643  0.48267446    -0.02400
C365        C  0.31207009  0.23614060  0.47272102     0.07500
C366        C  0.29331225  0.22618185  0.51780983    -0.02600
Br367      Br  0.25870919  0.18761389  0.51949115    -0.01100
Br368      Br  0.31353642  0.20871051  0.61701054    -0.01200
Br369      Br  0.37826199  0.27475157  0.43939816    -0.01200
Br370      Br  0.36730930  0.32961609  0.53412704    -0.01100
C371        C  0.26242750  0.02467505  0.65801354    -0.02300
C372        C  0.26631651  0.48851135  0.64898541     0.07400
C373        C  0.23194917  0.47221194  0.66324098    -0.02400
C374        C  0.20011976  0.49351411  0.67090527    -0.02400
C375        C  0.19690672  0.02814047  0.64635061     0.07500
C376        C  0.23236654  0.04261409  0.63977580    -0.02600
Br377      Br  0.24603711  0.08071447  0.59707577    -0.01100
Br378      Br  0.26813129  0.03258907  0.73004924    -0.01200
Br379      Br  0.16292887  0.47038783  0.71154675    -0.01200
Br380      Br  0.22361931  0.42244877  0.67308114    -0.01100
C381        C  0.27406181  0.02630461  0.49266025    -0.02300
C382        C  0.30364580  0.02792918  0.45898202     0.07400
C383        C  0.33373605  0.00994926  0.47938319    -0.02400
C384        C  0.33624998  0.50188172  0.53365189    -0.02400
C385        C  0.30432427  0.49261460  0.56273701     0.07500
C386        C  0.27282003  0.00366455  0.53546111    -0.02600
Br387      Br  0.22822464  0.98302253  0.54853211    -0.01100
Br388      Br  0.23517696  0.05720125  0.48237299    -0.01200
Br389      Br  0.38256978  0.51521646  0.56003963    -0.01200
Br390      Br  0.37150070  0.48801837  0.44129699    -0.01100
C391        C  0.29974591  0.40727083  0.66210859    -0.02300
C392        C  0.29825169  0.42768388  0.61579890     0.07400
C393        C  0.29786009  0.40513403  0.57117715    -0.02400
C394        C  0.29712640  0.36640452  0.57285624    -0.02400
C395        C  0.30072838  0.34615120  0.61840082     0.07500
C396        C  0.29661560  0.36853739  0.66318260    -0.02600
Br397      Br  0.28108074  0.34771769  0.72752913    -0.01100
Br398      Br  0.30425663  0.43158294  0.72762954    -0.01200
Br399      Br  0.28029646  0.34330366  0.51256154    -0.01200
Br400      Br  0.30748110  0.42361832  0.50484177    -0.01100
C401        C  0.37788580  0.20532296  0.31884204    -0.02300
C402        C  0.37346892  0.23144391  0.28225581     0.07400
C403        C  0.34214863  0.25063489  0.28315434    -0.02400
C404        C  0.31645431  0.24483367  0.32229415    -0.02400
C405        C  0.32574831  0.22629278  0.36943343     0.07500
C406        C  0.35897762  0.20757308  0.36470877    -0.02600
Br407      Br  0.38618429  0.18793349  0.41795840    -0.01100
Br408      Br  0.41143391  0.16711007  0.30737861    -0.01200
Br409      Br  0.27006234  0.26037012  0.30076148    -0.01200
Br410      Br  0.33310494  0.28124423  0.22549223    -0.01100
C411        C  0.38854949  0.25909765  0.69359801    -0.02300
C412        C  0.39005864  0.28197157  0.73630160     0.07400
C413        C  0.36916447  0.31234330  0.73687969    -0.02400
C414        C  0.35226515  0.32204450  0.69225220    -0.02400
C415        C  0.34111190  0.29600881  0.65582562     0.07500
C416        C  0.36705294  0.26773381  0.65146550    -0.02600
Br417      Br  0.38854204  0.25092637  0.58890912    -0.01100
Br418      Br  0.41898080  0.21774855  0.69074770    -0.01200
Br419      Br  0.37859699  0.36159238  0.66494741    -0.01200
Br420      Br  0.37072582  0.34582684  0.79299505    -0.01100
C421        C  0.44484658  0.30837729  0.00449153    -0.02300
C422        C  0.47577295  0.30077071  0.97644302     0.07400
C423        C  0.50706632  0.29213783  0.00249139    -0.02400
C424        C  0.50647076  0.28817719  0.05555398    -0.02400
C425        C  0.47492359  0.29341395  0.08299346     0.07500
C426        C  0.44450346  0.30493247  0.05768563    -0.02600
Br427      Br  0.40165022  0.31373917  0.09561384    -0.01100
Br428      Br  0.40298015  0.32370341  0.97000814    -0.01200
Br429      Br  0.54892159  0.27553424  0.09108839    -0.01200
Br430      Br  0.55041970  0.28291374  0.96589436    -0.01100
C431        C  0.39258574  0.04509453  0.33861703    -0.02300
C432        C  0.38622393  0.02838794  0.29170813     0.07400
C433        C  0.35098977  0.51747491  0.28006279    -0.02400
C434        C  0.32312031  0.02213631  0.31380330    -0.02400
C435        C  0.32881836  0.03858492  0.36390829     0.07500
C436        C  0.36450644  0.05215470  0.37272924    -0.02600
Br437      Br  0.37895022  0.07907447  0.43244015    -0.01100
Br438      Br  0.44116690  0.05481515  0.35901799    -0.01200
Br439      Br  0.27697665  0.50933789  0.28486019    -0.01200
Br440      Br  0.34236133  0.49841271  0.21214748    -0.01100
C441        C  0.49263800  0.36509157  0.36214163    -0.02300
C442        C  0.46113510  0.34643574  0.34953747     0.07400
C443        C  0.42916870  0.36494826  0.34895298    -0.02400
C444        C  0.43060796  0.40243525  0.34486614    -0.02400
C445        C  0.46384128  0.41966553  0.33919641     0.07500
C446        C  0.49460477  0.40224441  0.35413428    -0.02600
Br447      Br  0.54013053  0.42650545  0.34920952    -0.01100
Br448      Br  0.53471969  0.33858635  0.37507098    -0.01200
Br449      Br  0.38821122  0.42903332  0.33413874    -0.01200
Br450      Br  0.38519856  0.33911363  0.33709985    -0.01100
C451        C  0.34228047  0.01157269  0.67687566    -0.02300
C452        C  0.33776125  0.47976817  0.64515029     0.07400
C453        C  0.36761837  0.45616501  0.64077634    -0.02400
C454        C  0.39520459  0.45784999  0.67670905    -0.02400
C455        C  0.39280491  0.98355034  0.71635067     0.07500
C456        C  0.36652183  0.00972512  0.71695789    -0.02600
Br457      Br  0.36421318  0.04467834  0.77125894    -0.01100
Br458      Br  0.33460861  0.06005063  0.65363716    -0.01200
Br459      Br  0.43817823  0.43113212  0.66623570    -0.01200
Br460      Br  0.37754715  0.42795719  0.58041070    -0.01100
C461        C  0.52777044  0.11295721  0.82416950    -0.02300
C462        C  0.50678258  0.09335851  0.85916403     0.07400
C463        C  0.48904785  0.11115408  0.89878972    -0.02400
C464        C  0.48847523  0.14885979  0.89937359    -0.02400
C465        C  0.50623696  0.16820505  0.86099078     0.07500
C466        C  0.52781518  0.15061843  0.82555138    -0.02600
Br467      Br  0.55434834  0.17798719  0.77558655    -0.01100
Br468      Br  0.55208658  0.08861851  0.76969132    -0.01200
Br469      Br  0.46164236  0.17423347  0.95022061    -0.01200
Br470      Br  0.46427770  0.08379104  0.95041520    -0.01100
C471        C  0.43793575  0.96120424  0.98977191    -0.02300
C472        C  0.46952454  0.95780385  0.96125318     0.07400
C473        C  0.50197441  0.95452497  0.98713527    -0.02400
C474        C  0.50329822  0.95922776  0.04029596    -0.02400
C475        C  0.47202759  0.96560907  0.06823164     0.07500
C476        C  0.43920144  0.96453960  0.04302190    -0.02600
Br477      Br  0.39576412  0.96698657  0.08163286    -0.01100
Br478      Br  0.39276527  0.96144214  0.95579838    -0.01200
Br479      Br  0.54850801  0.96065829  0.07405117    -0.01200
Br480      Br  0.54543978  0.94654672  0.95006269    -0.01100
C481        C  0.72112647  0.21017107  0.40525266    -0.02300
C482        C  0.68840824  0.22529119  0.38894535     0.07400
C483        C  0.69526803  0.25507115  0.35432019    -0.02400
C484        C  0.72883671  0.27525158  0.35342037    -0.02400
C485        C  0.75977555  0.26235158  0.37774374     0.07500
C486        C  0.75509877  0.22544690  0.39205238    -0.02600
Br487      Br  0.79338075  0.19277833  0.38244008    -0.01100
Br488      Br  0.72274364  0.16603714  0.44193732    -0.01200
Br489      Br  0.73424852  0.31519176  0.30789395    -0.01200
Br490      Br  0.66387843  0.26576618  0.29957276    -0.01100
C491        C  0.59031450  0.22330881  0.29229541    -0.02300
C492        C  0.55865041  0.23763319  0.30987331     0.07400
C493        C  0.55325850  0.23965310  0.36244479    -0.02400
C494        C  0.58190292  0.23452087  0.39614981    -0.02400
C495        C  0.61485631  0.21917033  0.37797455     0.07500
C496        C  0.61106069  0.20492152  0.32733977    -0.02600
Br497      Br  0.59265128  0.15617353  0.32043957    -0.01100
Br498      Br  0.59881017  0.21696272  0.22084684    -0.01200
Br499      Br  0.56986610  0.24787109  0.46452161    -0.01200
Br500      Br  0.50544278  0.24576875  0.38793609    -0.01100
C501        C  0.68807066  0.47883333  0.41276663    -0.02300
C502        C  0.68523205  0.01761171  0.40296488     0.07400
C503        C  0.71958423  0.03297014  0.39121496    -0.02400
C504        C  0.74901088  0.01053945  0.37981756    -0.02400
C505        C  0.75395732  0.47561601  0.40558213     0.07500
C506        C  0.72057452  0.46352818  0.42690913    -0.02600
Br507      Br  0.71303612  0.42994158  0.48072626    -0.01100
Br508      Br  0.65048511  0.44327280  0.40067065    -0.01200
Br509      Br  0.77226751  0.02643661  0.31777591    -0.01200
Br510      Br  0.73240303  0.08304038  0.39103669    -0.01100
C511        C  0.62758808  0.10569597  0.44721191    -0.02300
C512        C  0.64648293  0.08288632  0.41115518     0.07400
C513        C  0.65861425  0.10404637  0.36837710    -0.02400
C514        C  0.66319289  0.14316370  0.37035646    -0.02400
C515        C  0.64767436  0.16535879  0.41017685     0.07500
C516        C  0.62350478  0.14374778  0.43977776    -0.02600
Br517      Br  0.58135827  0.16349998  0.46853672    -0.01100
Br518      Br  0.60733656  0.09025660  0.51217902    -0.01200
Br519      Br  0.68664554  0.16493122  0.31177524    -0.01200
Br520      Br  0.66876182  0.08106362  0.30410743    -0.01100
C521        C  0.56500182  0.04547928  0.32514544    -0.02300
C522        C  0.57044353  0.02249516  0.28395291     0.07400
C523        C  0.60161479  0.00268253  0.28274077    -0.02400
C524        C  0.62767924  0.00722239  0.32141633    -0.02400
C525        C  0.61942622  0.02598772  0.36919571     0.07500
C526        C  0.58505306  0.04211666  0.36947803    -0.02600
Br527      Br  0.55887814  0.05593805  0.42865361    -0.01100
Br528      Br  0.52929539  0.58041379  0.32293976    -0.01200
Br529      Br  0.67381102  0.99068010  0.29821271    -0.01200
Br530      Br  0.61008323  0.97264363  0.22342724    -0.01100
C531        C  0.69679826  0.24942482  0.66200026    -0.02300
C532        C  0.69309988  0.28561610  0.64403432     0.07400
C533        C  0.72688558  0.30387073  0.64443854    -0.02400
C534        C  0.75896859  0.28549718  0.63414212    -0.02400
C535        C  0.76163926  0.24679489  0.63731666     0.07500
C536        C  0.72931976  0.23006018  0.65627435    -0.02600
Br537      Br  0.72576361  0.18065609  0.67422211    -0.01100
Br538      Br  0.66684392  0.23217208  0.71734163    -0.01200
Br539      Br  0.79965972  0.31661378  0.62094485    -0.01200
Br540      Br  0.73427626  0.34880873  0.68131432    -0.01100
C541        C  0.64592642  0.23979224  0.56318065    -0.02300
C542        C  0.65055552  0.27882079  0.56564919     0.07400
C543        C  0.64724167  0.29389607  0.51575617    -0.02400
C544        C  0.64642602  0.27225148  0.46916151    -0.02400
C545        C  0.64852801  0.23293591  0.46697088     0.07500
C546        C  0.64936550  0.21816013  0.51743524    -0.02600
Br547      Br  0.66087161  0.16871667  0.53159852    -0.01100
Br548      Br  0.62317575  0.21286807  0.61721319    -0.01200
Br549      Br  0.63898098  0.29978413  0.40835279    -0.01200
Br550      Br  0.63413043  0.34377579  0.50874752    -0.01100
C551        C  0.58797246  0.28440649  0.64015540    -0.02300
C552        C  0.62325395  0.29390774  0.65791627     0.07400
C553        C  0.62512489  0.30178045  0.71164946    -0.02400
C554        C  0.59574003  0.29598344  0.74459747    -0.02400
C555        C  0.56279267  0.28452485  0.72573272     0.07500
C556        C  0.55929400  0.27751123  0.67388105    -0.02600
Br557      Br  0.51301633  0.26253065  0.64831126    -0.01100
Br558      Br  0.57266492  0.29146709  0.57188541    -0.01200
Br559      Br  0.60079112  0.30166431  0.81740413    -0.01200
Br560      Br  0.66614909  0.32257129  0.74425320    -0.01100
C561        C  0.69918840  0.03547589  0.64073832    -0.02300
C562        C  0.69739319  0.49727278  0.64598039     0.07400
C563        C  0.72831301  0.48298678  0.66632952    -0.02400
C564        C  0.76244011  0.49940039  0.65674716    -0.02400
C565        C  0.76642431  0.03651551  0.64027230     0.07500
C566        C  0.73281326  0.05439722  0.63546974    -0.02600
Br567      Br  0.72817836  0.10326072  0.61304156    -0.01100
Br568      Br  0.65649079  0.06346133  0.64015651    -0.01200
Br569      Br  0.79999319  0.46701211  0.67273428    -0.01200
Br570      Br  0.72400686  0.44376283  0.71470769    -0.01100
C571        C  0.67856003  0.00979729  0.54280279    -0.02300
C572        C  0.65737379  0.48347299  0.56683476     0.07400
C573        C  0.62920141  0.47138797  0.53384317    -0.02400
C574        C  0.62002863  0.99090239  0.48649068    -0.02400
C575        C  0.64062061  0.02240171  0.46989605     0.07500
C576        C  0.66679949  0.03287769  0.50560262    -0.02600
Br577      Br  0.69066450  0.07828312  0.50468498    -0.01100
Br578      Br  0.72797620  0.00350764  0.53939530    -0.01200
Br579      Br  0.57875191  0.47318011  0.45239334    -0.01200
Br580      Br  0.60237398  0.42822330  0.54993987    -0.01100
C581        C  0.63342227  0.37091083  0.64366606    -0.02300
C582        C  0.65795858  0.34734009  0.61799630     0.07400
C583        C  0.68602290  0.36875938  0.59541369    -0.02400
C584        C  0.69151765  0.40720030  0.60305801    -0.02400
C585        C  0.66694716  0.42901958  0.63055212     0.07500
C586        C  0.64208767  0.40690471  0.65787957    -0.02600
Br587      Br  0.63539332  0.41237708  0.72965593    -0.01100
Br588      Br  0.58271515  0.36510361  0.64789609    -0.01200
Br589      Br  0.73986354  0.42359776  0.59271763    -0.01200
Br590      Br  0.71786827  0.34733042  0.55049559    -0.01100
C591        C  0.59510058  0.48629249  0.63805090    -0.02300
C592        C  0.62967220  0.48529965  0.65959819     0.07400
C593        C  0.63002999  0.49213729  0.71373505    -0.02400
C594        C  0.59833989  0.48840166  0.74279356    -0.02400
C595        C  0.56616439  0.47882428  0.71947676     0.07500
C596        C  0.56429649  0.97758377  0.66669040    -0.02600
Br597      Br  0.51982819  0.97014724  0.63245484    -0.01100
Br598      Br  0.58335312  0.02390040  0.59129370    -0.01200
Br599      Br  0.59863467  0.49452673  0.81585816    -0.01200
Br600      Br  0.67054719  0.50922325  0.75222295    -0.01100
C601        C  0.66266636  0.97300477  0.62559500    -0.02900
C602        C  0.65714154  0.80147926  0.61966624    -0.02900
C603        C  0.64784272  0.53714073  0.41345836    -0.02900
C604        C  0.65073729  0.70979059  0.41109484    -0.02900
In605      In  0.47949365  0.49164842  0.81305096     1.36900
C606        C  0.42323551  0.48439291  0.75379051     0.77200
O607        O  0.46419369  0.54655166  0.83572128    -0.61300
O608        O  0.51833811  0.53279832  0.84325476    -0.52200
C609        C  0.47217169  0.46502212  0.90605819     0.69800
O610        O  0.45147161  0.48716575  0.88715243    -0.47100
C611        C  0.53317016  0.48072613  0.74948960     0.74500
O612        O  0.43641483  0.45757958  0.77540047    -0.58900
O613        O  0.51518062  0.50873870  0.74965324    -0.49000
O614        O  0.43871247  0.51390307  0.76318960    -0.55300
C615        C  0.49519150  0.55651001  0.84744006     0.84700
O616        O  0.49457177  0.45300845  0.87493267    -0.57200
O617        O  0.52398263  0.95840270  0.78392162    -0.60500
In618      In  0.47559731  0.99026175  0.22287391     1.36900
C619        C  0.41559593  0.51791308  0.25846143     0.77200
O620        O  0.46128869  0.93674347  0.25345054    -0.61300
O621        O  0.48202344  0.97691646  0.30454234    -0.52200
C622        C  0.47323944  0.47481330  0.12338521     0.69800
O623        O  0.46447638  0.50495092  0.14129500    -0.47100
C624        C  0.53920491  0.51082028  0.25214732     0.74500
O625        O  0.44278329  0.53748023  0.24907290    -0.58900
O626        O  0.53245713  0.98059943  0.23918115    -0.49000
O627        O  0.41838813  0.98546114  0.24279812    -0.55300
C628        C  0.47001903  0.94539301  0.29829454     0.84700
O629        O  0.48676517  0.95399377  0.15554747    -0.57200
O630        O  0.51610642  0.53310223  0.23924842    -0.60500
In631      In  0.47947683  0.77152887  0.82726745     1.36900
C632        C  0.53333220  0.78061337  0.76166004     0.77200
O633        O  0.51708779  0.73191935  0.85861330    -0.61300
O634        O  0.46445505  0.71438675  0.84080322    -0.52200
C635        C  0.47592352  0.79831153  0.92091704     0.69800
O636        O  0.49963188  0.80827970  0.88988621    -0.47100
C637        C  0.42195006  0.78087802  0.77037696     0.74500
O638        O  0.52319172  0.80567185  0.79066100    -0.58900
O639        O  0.42927400  0.75147363  0.79042151    -0.49000
O640        O  0.51473836  0.75213211  0.76461474    -0.55300
C641        C  0.49470948  0.70628480  0.85618443     0.84700
O642        O  0.45162750  0.77904372  0.90177311    -0.57200
O643        O  0.44338369  0.80641939  0.78143148    -0.60500
In644      In  0.47207511  0.77338638  0.23597808     1.36900
C645        C  0.53090793  0.74636085  0.27441838     0.77200
O646        O  0.48032588  0.82800357  0.26749379    -0.61300
O647        O  0.45800829  0.78746667  0.31603836    -0.52200
C648        C  0.47629009  0.78768368  0.13739673     0.69800
O649        O  0.47922899  0.75631735  0.15465655    -0.47100
C650        C  0.40703682  0.74763864  0.25245695     0.74500
O651        O  0.53056715  0.77679683  0.25382888    -0.58900
O652        O  0.41359614  0.78084750  0.24665415    -0.49000
O653        O  0.50260769  0.72789485  0.26937975    -0.55300
C654        C  0.46834820  0.81961498  0.31087221     0.84700
O655        O  0.47159014  0.81170847  0.17049625    -0.57200
O656        O  0.43269193  0.72790781  0.24126393    -0.60500
C657        C  0.30084143  0.97250227  0.61606951    -0.02900
C658        C  0.30688990  0.80317552  0.62025549    -0.02900
C659        C  0.29820674  0.54703478  0.40583741    -0.02900
C660        C  0.30087412  0.71883841  0.41594917    -0.02900
C661        C  0.16180591  0.55088719  0.63651172    -0.02900
C662        C  0.16597126  0.72307220  0.62612427    -0.02900
C663        C  0.15323134  0.96986612  0.41494300    -0.02900
C664        C  0.15407062  0.79887818  0.41468276    -0.02900
In665      In  0.97929867  0.02735348  0.82728182     1.36900
C666        C  0.03427903  0.53488132  0.76844995     0.77200
O667        O  0.01786508  0.98993020  0.86077558    -0.61300
O668        O  0.96763685  0.96927404  0.83523737    -0.52200
C669        C  0.96752153  0.54234244  0.92648562     0.69800
O670        O  0.98972157  0.56007883  0.89989217    -0.47100
C671        C  0.92420134  0.54384938  0.77239178     0.74500
O672        O  0.02721889  0.55771461  0.80276512    -0.58900
O673        O  0.93214925  0.01286198  0.78099297    -0.49000
O674        O  0.01042662  0.01039616  0.75972607    -0.55300
C675        C  0.99717797  0.96308363  0.85519194     0.84700
O676        O  0.94869078  0.02235512  0.89938419    -0.57200
O677        O  0.94419789  0.56780804  0.79225534    -0.60500
In678      In  0.97063345  0.51501030  0.24312137     1.36900
C679        C  0.02243453  0.48543211  0.29489598     0.77200
O680        O  0.00911351  0.56037495  0.25623793    -0.61300
O681        O  0.96092772  0.55947972  0.29731915    -0.52200
C682        C  0.96631712  0.52243437  0.14324632     0.69800
O683        O  0.97399241  0.49275408  0.16317400    -0.47100
C684        C  0.90714842  0.49510445  0.27424467     0.74500
O685        O  0.02642385  0.49575210  0.24964023    -0.58900
O686        O  0.91536142  0.52724767  0.26367621    -0.49000
O687        O  0.99071943  0.48409060  0.30990942    -0.55300
C688        C  0.99081598  0.57435880  0.29083721     0.84700
O689        O  0.96053429  0.54750483  0.17416613    -0.57200
O690        O  0.92885920  0.97376348  0.25975848    -0.60500
In691      In  0.97855906  0.75364088  0.81094884     1.36900
C692        C  0.91966470  0.74687960  0.75639796     0.77200
O693        O  0.96955898  0.81108836  0.82412575    -0.61300
O694        O  0.01922820  0.79044752  0.84667272    -0.52200
C695        C  0.97215407  0.73212354  0.90654194     0.69800
O696        O  0.94881370  0.74974388  0.88461188    -0.47100
C697        C  0.03151457  0.74142147  0.74641850     0.74500
O698        O  0.93717596  0.71974025  0.76888660    -0.58900
O699        O  0.01674711  0.77131491  0.75032644    -0.49000
O700        O  0.93207524  0.77650244  0.77235617    -0.55300
C701        C  0.99906153  0.81686753  0.84518118     0.84700
O702        O  0.99546997  0.71993679  0.87711136    -0.57200
O703        O  0.01714081  0.71656524  0.77265211    -0.60500
In704      In  0.98600859  0.76230419  0.22247703     1.36900
C705        C  0.92341067  0.77561406  0.26351451     0.77200
O706        O  0.00465612  0.70760563  0.23581446    -0.61300
O707        O  0.99303429  0.74078484  0.30008120    -0.52200
C708        C  0.97788637  0.75133499  0.12349115     0.69800
O709        O  0.98766705  0.78162440  0.14149565    -0.47100
C710        C  0.04680978  0.79187334  0.25052029     0.74500
O711        O  0.94469336  0.80092288  0.25079799    -0.58900
O712        O  0.04461192  0.76365598  0.22405816    -0.49000
O713        O  0.93306436  0.74464366  0.25097620    -0.55300
C714        C  0.00322534  0.71093075  0.28348304     0.84700
O715        O  0.97098136  0.72762686  0.15604347    -0.57200
O716        O  0.01825550  0.80907568  0.25273625    -0.60500
C717        C  0.80603157  0.55434051  0.62304143    -0.02900
C718        C  0.79991342  0.72785924  0.61719537    -0.02900
C719        C  0.79235766  0.95971929  0.42028939    -0.02900
C720        C  0.79531104  0.78673476  0.39522590    -0.02900
C721        C  0.76564029  0.88831161  0.42736829    -0.02300
C722        C  0.79394082  0.91385905  0.41640529     0.07400
C723        C  0.81895241  0.89322843  0.38463571    -0.02400
C724        C  0.81037553  0.85711641  0.36584904    -0.02400
C725        C  0.79026987  0.83135707  0.39681336     0.07500
C726        C  0.77489699  0.85153592  0.43737305    -0.02600
Br727      Br  0.79758453  0.84550423  0.50045836    -0.01100
Br728      Br  0.72757785  0.88742602  0.37841544    -0.01200
Br729      Br  0.82054492  0.84998492  0.29465424    -0.01200
Br730      Br  0.86876232  0.90379596  0.37434986    -0.01100
C731        C  0.83203728  0.75054458  0.47126144    -0.02300
C732        C  0.80194823  0.77037067  0.45202888     0.07400
C733        C  0.77249603  0.76890862  0.48582879    -0.02400
C734        C  0.77291473  0.75030250  0.53169992    -0.02400
C735        C  0.80410948  0.74139007  0.55815983     0.07500
C736        C  0.83429119  0.73923619  0.52403866    -0.02600
Br737      Br  0.87399485  0.70844448  0.54013458    -0.01100
Br738      Br  0.86747317  0.72948603  0.42696907    -0.01200
Br739      Br  0.73130782  0.72158624  0.54210114    -0.01200
Br740      Br  0.72733257  0.78784179  0.46888088    -0.01100
C741        C  0.82371623  0.49463868  0.56451502    -0.02300
C742        C  0.81252847  0.53177714  0.56860046     0.07400
C743        C  0.79977854  0.54281787  0.52009924    -0.02400
C744        C  0.80230874  0.52182691  0.47459436    -0.02400
C745        C  0.80106173  0.98321689  0.47362033     0.07500
C746        C  0.81186986  0.97052273  0.52263076    -0.02600
Br747      Br  0.82426569  0.92199188  0.52976105    -0.01100
Br748      Br  0.86483341  0.47831061  0.60168035    -0.01200
Br749      Br  0.81761891  0.05171599  0.41781258    -0.01200
Br750      Br  0.77238304  0.58366308  0.50944639    -0.01100
C751        C  0.81968883  0.62291227  0.57945907    -0.02300
C752        C  0.80797113  0.59980819  0.62069595     0.07400
C753        C  0.80053966  0.62273146  0.66427900    -0.02400
C754        C  0.80515429  0.66160231  0.66462443    -0.02400
C755        C  0.80294285  0.68287599  0.61903746     0.07500
C756        C  0.80787600  0.65934049  0.57552778    -0.02600
Br757      Br  0.79556856  0.66963098  0.50691436    -0.01100
Br758      Br  0.85239173  0.61107620  0.52481567    -0.01200
Br759      Br  0.81284399  0.68162742  0.73125548    -0.01200
Br760      Br  0.77534727  0.60588819  0.72295861    -0.01100
C761        C  0.89258868  0.79757008  0.34117404    -0.02300
C762        C  0.89070512  0.78058725  0.29380202     0.07400
C763        C  0.85881228  0.76426838  0.27806497    -0.02400
C764        C  0.82802367  0.76476887  0.30913551     0.02400
C765        C  0.82889801  0.78161344  0.35912435     0.07500
C766        C  0.86247310  0.79882264  0.37314224    -0.02600
Br767      Br  0.87073016  0.82246772  0.43809569    -0.01100
Br768      Br  0.93816774  0.81645357  0.36426429    -0.01200
Br769      Br  0.78656959  0.74505417  0.27456948    -0.01200
Br770      Br  0.85752579  0.74299974  0.21053402    -0.01100
C771        C  0.86608430  0.74435383  0.63841876    -0.02300
C772        C  0.83027828  0.74476295  0.65391690     0.07400
C773        C  0.82601722  0.75825771  0.70593606    -0.02400
C774        C  0.85602402  0.76047779  0.73862274    -0.02400
C775        C  0.88819186  0.74520784  0.72332771     0.07500
C776        C  0.89194200  0.73436165  0.67284415    -0.02600
Br777      Br  0.93667904  0.71801824  0.64731863    -0.01100
Br778      Br  0.88349108  0.78587005  0.60119414    -0.01200
Br779      Br  0.85254182  0.78046128  0.80657831    -0.01200
Br780      Br  0.78183206  0.76821252  0.74131694    -0.01100
C781        C  0.00786667  0.74508264  0.03975260    -0.02300
C782        C  0.97645715  0.74340039  0.06859215     0.07400
C783        C  0.94441353  0.73251556  0.04532397    -0.02400
C784        C  0.94323841  0.72655014  0.99247649    -0.02400
C785        C  0.97429190  0.73079781  0.96271213     0.07500
C786        C  0.00683441  0.73963072  0.98692604    -0.02600
Br787      Br  0.04989796  0.74796185  0.94837379    -0.01100
Br788      Br  0.05276551  0.75273798  0.07348943    -0.01200
Br789      Br  0.89891393  0.71246992  0.96113104    -0.01200
Br790      Br  0.90206955  0.72614670  0.08580710    -0.01100
C791        C  0.85730781  0.98293462  0.39512640    -0.02300
C792        C  0.82205784  0.97094169  0.38013446     0.07400
C793        C  0.81800659  0.96296211  0.32657887    -0.02400
C794        C  0.84510354  0.97207996  0.29109176    -0.02400
C795        C  0.87674527  0.98825995  0.30750744     0.07500
C796        C  0.88253995  0.99407749  0.35905643    -0.02600
Br797      Br  0.92844089  0.51258990  0.38210440    -0.01100
Br798      Br  0.87877150  0.97542456  0.46063141    -0.01200
Br799      Br  0.83976241  0.96250536  0.21943138    -0.01200
Br800      Br  0.77669246  0.93821434  0.29879408    -0.01100
C801        C  0.03949759  0.65993014  0.30615216    -0.02300
C802        C  0.00970534  0.68063340  0.31611098     0.07400
C803        C  0.98046491  0.66539007  0.34181171    -0.02400
C804        C  0.97702082  0.62792348  0.34420912    -0.02400
C805        C  0.00230637  0.60700445  0.31861639     0.07500
C806        C  0.03603424  0.62243974  0.30822905    -0.02600
Br807      Br  0.07624199  0.59289345  0.29393447    -0.01100
Br808      Br  0.08285692  0.68295150  0.28346862    -0.01200
Br809      Br  0.93657366  0.60664506  0.37865520    -0.01200
Br810      Br  0.94200173  0.69496683  0.36348620    -0.01100
C811        C  0.89958060  0.56328540  0.69033996    -0.02300
C812        C  0.89370842  0.55121179  0.73930808     0.07400
C813        C  0.85983158  0.53961655  0.75384385    -0.02400
C814        C  0.83090266  0.53997670  0.71943546    -0.02400
C815        C  0.83664167  0.54829747  0.66522134     0.07500
C816        C  0.87320860  0.55838902  0.65297488    -0.02600
Br817      Br  0.89399657  0.55792971  0.58634753    -0.01100
Br818      Br  0.94579062  0.58468294  0.67436263    -0.01200
Br819      Br  0.78670460  0.52784251  0.75581949    -0.01200
Br820      Br  0.85443163  0.02562389  0.82401668    -0.01100
C821        C  0.03520741  0.91004963  0.84484515    -0.02300
C822        C  0.00656765  0.92674157  0.86919728     0.07400
C823        C  0.98282149  0.90655240  0.89955264    -0.02400
C824        C  0.98329826  0.86900550  0.89716444    -0.02400
C825        C  0.00828789  0.85226289  0.86583207     0.07500
C826        C  0.03668796  0.87235176  0.84472718    -0.02600
Br827      Br  0.07540432  0.84839426  0.81186054    -0.01100
Br828      Br  0.06910728  0.93798891  0.80549907    -0.01200
Br829      Br  0.94841107  0.84027709  0.93368334    -0.01200
Br830      Br  0.94858661  0.93040204  0.94179451    -0.01100
C831        C  0.93421437  0.04273071  0.00626111    -0.02300
C832        C  0.96691047  0.54251630  0.98277416     0.07400
C833        C  0.99906568  0.53931567  0.00958753    -0.02400
C834        C  0.99850388  0.53269677  0.06205945    -0.02400
C835        C  0.96610360  0.52851545  0.08806868     0.07500
C836        C  0.93327955  0.03586222  0.05884303    -0.02600
Br837      Br  0.88851772  0.03159393  0.09426845    -0.01100
Br838      Br  0.89043794  0.04912288  0.97031142    -0.01200
Br839      Br  0.04230712  0.53025949  0.09918922    -0.01200
Br840      Br  0.04418257  0.54072490  0.97466147    -0.01100
C841        C  0.13372673  0.77697424  0.31925279    -0.02300
C842        C  0.12529381  0.78993243  0.37056635     0.07400
C843        C  0.09079847  0.80610893  0.37415091    -0.02400
C844        C  0.07176691  0.81608109  0.33111016    -0.02400
C845        C  0.07759740  0.79888430  0.28486975     0.07500
C846        C  0.10897350  0.77966019  0.27878359    -0.02600
Br847      Br  0.12018365  0.76185512  0.21105757    -0.01100
Br848      Br  0.17935135  0.76000821  0.29477449    -0.01200
Br849      Br  0.03727102  0.85396541  0.33676211    -0.01200
Br850      Br  0.06258594  0.81137032  0.43429717    -0.01100
C851        C  0.17252242  0.90328970  0.37595083    -0.02300
C852        C  0.15273550  0.92535299  0.41195086     0.07400
C853        C  0.12668356  0.90337971  0.43768669    -0.02400
C854        C  0.13193790  0.86599598  0.44709856    -0.02400
C855        C  0.15270605  0.84369937  0.41312269     0.07500
C856        C  0.16492599  0.86527010  0.37068902    -0.02600
Br857      Br  0.17475471  0.84640394  0.30409436    -0.01100
Br858      Br  0.21354397  0.91873678  0.33345880    -0.01200
Br859      Br  0.11053050  0.85167064  0.51112149    -0.01200
Br860      Br  0.08056356  0.91971041  0.45647803    -0.01100
C861        C  0.08021185  0.95979173  0.30674532    -0.02300
C862        C  0.05301051  0.47958213  0.32888834     0.07400
C863        C  0.05630862  0.49821509  0.37512498    -0.02400
C864        C  0.08638589  0.49422080  0.40636694    -0.02400
C865        C  0.11828743  0.97796271  0.38141081     0.07500
C866        C  0.11357639  0.96263851  0.33058506    -0.02600
Br867      Br  0.14980428  0.95127041  0.28253529    -0.01100
Br868      Br  0.07211742  0.92877510  0.24788645    -0.01200
Br869      Br  0.07535163  0.50643009  0.47648832    -0.01200
Br870      Br  0.01944880  0.53055704  0.39578056    -0.01100
C871        C  0.13787849  0.72733729  0.52764808    -0.02300
C872        C  0.16127369  0.73962946  0.56731447     0.07400
C873        C  0.17985935  0.77105650  0.55057749    -0.02400
C874        C  0.16966672  0.79394475  0.51082539    -0.02400
C875        C  0.14596863  0.78273628  0.47170336     0.07500
C876        C  0.12725188  0.74947450  0.48534629    -0.02600
Br877      Br  0.08503489  0.73110975  0.45162886    -0.01100
Br878      Br  0.14231595  0.67879172  0.50580173    -0.01200
Br879      Br  0.19457593  0.83959597  0.50927217    -0.01200
Br880      Br  0.22759024  0.76565091  0.54091779    -0.01100
C881        C  0.09389319  0.72113788  0.73890159    -0.02300
C882        C  0.06480031  0.73707365  0.71674371     0.07400
C883        C  0.06919660  0.75269943  0.66909725    -0.02400
C884        C  0.10291516  0.75399286  0.64521907    -0.02400
C885        C  0.13164115  0.73178749  0.66124697     0.07500
C886        C  0.12506132  0.71500275  0.71024918    -0.02600
Br887      Br  0.15189580  0.67786401  0.74025057    -0.01100
Br888      Br  0.09118867  0.70886763  0.81049181    -0.01200
Br889      Br  0.10771068  0.79339023  0.60024494    -0.01200
Br890      Br  0.02830829  0.77234453  0.63593381    -0.01100
C891        C  0.14937708  0.97307586  0.52051096    -0.02300
C892        C  0.15175957  0.99001466  0.47161647     0.07400
C893        C  0.15330503  0.52983878  0.48386143    -0.02400
C894        C  0.15868438  0.54840015  0.53211252    -0.02400
C895        C  0.15484298  0.53114048  0.58013790     0.07500
C896        C  0.14204554  0.99261478  0.56611394    -0.02600
Br897      Br  0.10115241  0.96945706  0.59827874    -0.01100
Br898      Br  0.16048365  0.92448379  0.53630875    -0.01200
Br899      Br  0.16900330  0.59909466  0.52925328    -0.01200
Br900      Br  0.13908783  0.56175025  0.43077088    -0.01100
C901        C  0.13130862  0.61904399  0.63496141    -0.02300
C902        C  0.16209626  0.59646150  0.64063874     0.07400
C903        C  0.19096600  0.61962526  0.65550574    -0.02400
C904        C  0.19448793  0.65621928  0.63940030    -0.02400
C905        C  0.16582037  0.67824122  0.62454355     0.07500
C906        C  0.13346279  0.65640366  0.62005334    -0.02600
Br907      Br  0.08794155  0.67556062  0.59994613    -0.01100
Br908      Br  0.09424848  0.61718297  0.68636084    -0.01200
Br909      Br  0.24171028  0.66774961  0.62644256    -0.01200
Br910      Br  0.22099812  0.61019498  0.71260185    -0.01100
C911        C  0.09998900  0.54271711  0.75775698    -0.02300
C912        C  0.06649992  0.53689143  0.73608045     0.07400
C913        C  0.06364143  0.53351748  0.68332839    -0.02400
C914        C  0.09334071  0.54051743  0.65194005    -0.02400
C915        C  0.12888302  0.54218048  0.67228474     0.07500
C916        C  0.13088071  0.54449143  0.72699507    -0.02600
Br917      Br  0.17436979  0.54952508  0.76456848    -0.01100
Br918      Br  0.10420288  0.04030860  0.82535927    -0.01200
Br919      Br  0.08111978  0.55712794  0.58470451    -0.01200
Br920      Br  0.01779913  0.52365232  0.65301641    -0.01100
C921        C  0.22730798  0.72070330  0.40888115    -0.02300
C922        C  0.26207816  0.73808516  0.40980005     0.07400
C923        C  0.26042497  0.77695055  0.40818081    -0.02400
C924        C  0.22774571  0.79637543  0.40602540    -0.02400
C925        C  0.19287672  0.77928377  0.40540771     0.07500
C926        C  0.19484537  0.74028976  0.40431083    -0.02600
Br927      Br  0.15335859  0.71065643  0.38657091    -0.01100
Br928      Br  0.21946771  0.66924641  0.41613192    -0.01200
Br929      Br  0.23568447  0.84713879  0.40030194    -0.01200
Br930      Br  0.30393283  0.80619997  0.39881893    -0.01100
C931        C  0.22777093  0.54108438  0.37248639    -0.02300
C932        C  0.26081342  0.52650463  0.38949024     0.07400
C933        C  0.25668196  0.98865138  0.39725745    -0.02400
C934        C  0.22365241  0.97350684  0.41353698    -0.02400
C935        C  0.19082093  0.98645539  0.39441825     0.07500
C936        C  0.19562094  0.51933551  0.36929520    -0.02600
Br937      Br  0.16116675  0.53590159  0.32053184    -0.01100
Br938      Br  0.22173529  0.59032670  0.35560334    -0.01200
Br939      Br  0.22686141  0.93071378  0.45409179    -0.01200
Br940      Br  0.29540992  0.95653120  0.38628783    -0.01100
C941        C  0.30731256  0.61279184  0.45700668    -0.02300
C942        C  0.29860496  0.59188958  0.41120121     0.07400
C943        C  0.29689258  0.61519381  0.36762100    -0.02400
C944        C  0.29220279  0.65334658  0.37169702    -0.02400
C945        C  0.30071252  0.67408856  0.41652213     0.07500
C946        C  0.31404360  0.65130465  0.45641967    -0.02600
Br947      Br  0.34576486  0.66891722  0.51096760    -0.01100
Br948      Br  0.31737200  0.59255750  0.52322738    -0.01200
Br949      Br  0.27083356  0.67493163  0.31320560    -0.01200
Br950      Br  0.30135156  0.59829492  0.29827266    -0.01100
C951        C  0.23213969  0.73549073  0.67997842    -0.02300
C952        C  0.20048303  0.74572788  0.65297729     0.07400
C953        C  0.20162017  0.78385457  0.65286671    -0.02400
C954        C  0.23388560  0.80370576  0.64166579    -0.02400
C955        C  0.26877438  0.78763170  0.64543050     0.07500
C956        C  0.26528337  0.75652656  0.67687199    -0.02600
Br957      Br  0.30089668  0.74943616  0.72834304    -0.01100
Br958      Br  0.22969538  0.70445213  0.73794518    -0.01200
Br959      Br  0.22340667  0.85150893  0.62183577    -0.01200
Br960      Br  0.16662582  0.80826430  0.69309964    -0.01100
C961        C  0.30142034  0.74344677  0.56353645    -0.02300
C962        C  0.31304107  0.78008447  0.56755010     0.07400
C963        C  0.33628018  0.78893719  0.52542764    -0.02400
C964        C  0.33900887  0.76553251  0.48077671    -0.02400
C965        C  0.31309030  0.73681782  0.47065511     0.07500
C966        C  0.29397711  0.72730876  0.51559025    -0.02600
Br967      Br  0.25914578  0.68910088  0.51661916    -0.01100
Br968      Br  0.31439093  0.70957452  0.61453386    -0.01200
Br969      Br  0.38013256  0.77337313  0.43826095    -0.01200
Br970      Br  0.36794099  0.83064024  0.52993289    -0.01100
C971        C  0.26426746  0.52536204  0.66021990    -0.02300
C972        C  0.26563066  0.98795028  0.64737326     0.07400
C973        C  0.23169542  0.97050520  0.66047252    -0.02400
C974        C  0.19848292  0.99035079  0.66140255    -0.02400
C975        C  0.19855744  0.53078177  0.65393525     0.07500
C976        C  0.23410493  0.54383747  0.64322174    -0.02600
Br977      Br  0.24725656  0.58143312  0.59938317    -0.01100
Br978      Br  0.27088607  0.53308470  0.73222512    -0.01200
Br979      Br  0.15725133  0.96366302  0.68636843    -0.01200
Br980      Br  0.22832042  0.92389791  0.69052070    -0.01100
C981        C  0.27501683  0.52709284  0.49486914    -0.02300
C982        C  0.30437545  0.52848357  0.46078276     0.07400
C983        C  0.33439041  0.50999707  0.48063011    -0.02400
C984        C  0.33546411  0.00272699  0.53253954    -0.02400
C985        C  0.30360087  0.99305260  0.56138712     0.07500
C986        C  0.27367201  0.50414698  0.53736329    -0.02600
Br987      Br  0.22873130  0.48473426  0.55140448    -0.01100
Br988      Br  0.23619412  0.55823361  0.48494352    -0.01200
Br989      Br  0.38034488  0.02041769  0.55940417    -0.01200
Br990      Br  0.37124501  0.98776049  0.44133938    -0.01100
C991        C  0.30228371  0.90783055  0.66084242    -0.02300
C992        C  0.29904357  0.92826176  0.61473190     0.07400
C993        C  0.29802770  0.90574834  0.57006047    -0.02400
C994        C  0.29769478  0.86707041  0.57160477    -0.02400
C995        C  0.30216315  0.84697393  0.61686959     0.07500
C996        C  0.29926125  0.86917789  0.66192319    -0.02600
Br997      Br  0.28591756  0.84797172  0.72701736    -0.01100
Br998      Br  0.31079624  0.93136994  0.72630785    -0.01200
Br999      Br  0.28017050  0.84343636  0.51220255    -0.01200
Br1000     Br  0.30594069  0.92418243  0.50342730    -0.01100
C1001       C  0.37885870  0.70713121  0.31540071    -0.02300
C1002       C  0.37488266  0.73447442  0.28040998     0.07400
C1003       C  0.34368054  0.75385407  0.28236288    -0.02400
C1004       C  0.31769878  0.74666986  0.32074016    -0.02400
C1005       C  0.32688352  0.72718893  0.36715962     0.07500
C1006       C  0.35986785  0.70816273  0.36133388    -0.02600
Br1007     Br  0.38637115  0.68571374  0.41303427    -0.01100
Br1008     Br  0.41123910  0.66830408  0.30118355    -0.01200
Br1009     Br  0.27101766  0.76108736  0.29882943    -0.01200
Br1010     Br  0.33484405  0.78639101  0.22682260    -0.01100
C1011       C  0.38793780  0.75919997  0.69383677    -0.02300
C1012       C  0.39244310  0.78439915  0.73374594     0.07400
C1013       C  0.37434098  0.81666259  0.73077549    -0.02400
C1014       C  0.35674577  0.82473586  0.68595792    -0.02400
C1015       C  0.34277991  0.79732160  0.65364351     0.07500
C1016       C  0.36686321  0.76763145  0.65126077    -0.02600
Br1017     Br  0.39016314  0.75235864  0.58942471    -0.01100
Br1018     Br  0.41399176  0.71488829  0.69344248    -0.01200
Br1019     Br  0.38229428  0.86244018  0.65295632    -0.01200
Br1020     Br  0.37839227  0.85330311  0.78270534    -0.01100
C1021       C  0.44843811  0.81337529  0.00491054    -0.02300
C1022       C  0.47855261  0.80387130  0.97635558     0.07400
C1023       C  0.50925060  0.79267040  0.00167885    -0.02400
C1024       C  0.50873209  0.78825146  0.05462923    -0.02400
C1025       C  0.47786711  0.79557287  0.08265730     0.07500
C1026       C  0.44816689  0.80939700  0.05800532    -0.02600
Br1027     Br  0.40614521  0.82036820  0.09659635    -0.01100
Br1028     Br  0.40756505  0.83178841  0.97116396    -0.01200
Br1029     Br  0.55028495  0.77183636  0.08898988    -0.01200
Br1030     Br  0.55136633  0.78027326  0.96401657    -0.01100
C1031       C  0.39212485  0.54642555  0.33793563    -0.02300
C1032       C  0.38554616  0.52901217  0.29150366     0.07400
C1033       C  0.35162517  0.01783339  0.27904966    -0.02400
C1034       C  0.32280301  0.52161401  0.31539562    -0.02400
C1035       C  0.32881085  0.53860486  0.36508276     0.07500
C1036       C  0.36441232  0.55269746  0.37301498    -0.02600
Br1037     Br  0.37926653  0.57898357  0.43316938    -0.01100
Br1038     Br  0.44059744  0.55859241  0.35635856    -0.01200
Br1039     Br  0.27755333  0.01076853  0.28210575    -0.01200
Br1040     Br  0.34358557  0.99990861  0.21042869    -0.01100
C1041       C  0.49683350  0.86541186  0.36212380    -0.02300
C1042       C  0.46522513  0.84655130  0.35073149     0.07400
C1043       C  0.43314264  0.86490083  0.35136337    -0.02400
C1044       C  0.43434085  0.90233858  0.34651349    -0.02400
C1045       C  0.46739535  0.91961864  0.33916364     0.07500
C1046       C  0.49856313  0.90244374  0.35306629    -0.02600
Br1047     Br  0.54399194  0.92651951  0.34503759    -0.01100
Br1048     Br  0.53921353  0.83902407  0.37365770    -0.01200
Br1049     Br  0.39159416  0.92862994  0.33688420    -0.01200
Br1050     Br  0.38903898  0.83892361  0.34129011    -0.01100
C1051       C  0.34370774  0.51030799  0.67695075    -0.02300
C1052       C  0.33733262  0.98168005  0.64346625     0.07400
C1053       C  0.36786194  0.95924394  0.63783373    -0.02400
C1054       C  0.39517279  0.96057192  0.67417748    -0.02400
C1055       C  0.39353765  0.48195780  0.71764139     0.07500
C1056       C  0.36783714  0.50873252  0.71714309    -0.02600
Br1057     Br  0.36637798  0.54511591  0.76964561    -0.01100
Br1058     Br  0.33702150  0.55837542  0.65150141    -0.01200
Br1059     Br  0.43822159  0.93437048  0.66343167    -0.01200
Br1060     Br  0.37797780  0.93254357  0.57617836    -0.01100
C1061       C  0.52602941  0.61419776  0.82831070    -0.02300
C1062       C  0.50352164  0.59395825  0.86062720     0.07400
C1063       C  0.48396079  0.61107601  0.89904712    -0.02400
C1064       C  0.48348586  0.64879966  0.90103084    -0.02400
C1065       C  0.50353134  0.66897445  0.86568532     0.07500
C1066       C  0.52674217  0.65183003  0.83184366    -0.02600
Br1067     Br  0.55638023  0.67966688  0.78594162    -0.01100
Br1068     Br  0.55147970  0.59108609  0.77377982    -0.01200
Br1069     Br  0.45443606  0.67302744  0.95043809    -0.01200
Br1070     Br  0.45684292  0.58276080  0.94732875    -0.01100
C1071       C  0.43978610  0.45958451  0.98911254    -0.02300
C1072       C  0.47194230  0.45773411  0.96147471     0.07400
C1073       C  0.50426149  0.45644750  0.98834372    -0.02400
C1074       C  0.50456109  0.46190046  0.04136128    -0.02400
C1075       C  0.47260687  0.46625004  0.06833801     0.07500
C1076       C  0.44017524  0.46318320  0.04235956    -0.02600
Br1077     Br  0.39619798  0.46379719  0.07985022    -0.01100
Br1078     Br  0.39487621  0.45753535  0.95418874    -0.01200
Br1079     Br  0.54908354  0.46720365  0.07648011    -0.01200
Br1080     Br  0.54873951  0.44974243  0.95322878    -0.01100
C1081       C  0.72238366  0.71002754  0.40397466    -0.02300
C1082       C  0.68940720  0.72483204  0.38807460     0.07400
C1083       C  0.69587798  0.75463763  0.35340823    -0.02400
C1084       C  0.72921765  0.77526124  0.35241278    -0.02400
C1085       C  0.76043864  0.76269051  0.37646542     0.07500
C1086       C  0.75617751  0.72571026  0.39055255    -0.02600
Br1087     Br  0.79475284  0.69353668  0.38008882    -0.01100
Br1088     Br  0.72464096  0.66576349  0.44011827    -0.01200
Br1089     Br  0.73387838  0.81534952  0.30702011    -0.01200
Br1090     Br  0.66420699  0.76466436  0.29871175    -0.01100
C1091       C  0.59116548  0.72119484  0.29173662    -0.02300
C1092       C  0.55957270  0.73587852  0.30896128     0.07400
C1093       C  0.55421046  0.73862688  0.36145394    -0.02400
C1094       C  0.58289004  0.73386161  0.39522850    -0.02400
C1095       C  0.61581637  0.71820511  0.37748869     0.07500
C1096       C  0.61186373  0.70322680  0.32726470    -0.02600
Br1097     Br  0.59299052  0.65452093  0.32183198    -0.01100
Br1098     Br  0.59947803  0.71362592  0.22050645    -0.01200
Br1099     Br  0.57088648  0.74840500  0.46293805    -0.01200
Br1100     Br  0.50647853  0.74591709  0.38677575    -0.01100
C1101       C  0.68768612  0.97938679  0.41202957    -0.02300
C1102       C  0.68555084  0.51702666  0.40350085     0.07400
C1103       C  0.71988004  0.53233692  0.39145458    -0.02400
C1104       C  0.74932432  0.50987885  0.38019832    -0.02400
C1105       C  0.75359508  0.97615385  0.40485900     0.07500
C1106       C  0.72017532  0.96395523  0.42598260    -0.02600
Br1107     Br  0.71254341  0.93010589  0.47943074    -0.01100
Br1108     Br  0.64991461  0.94400241  0.39995016    -0.01200
Br1109     Br  0.77265685  0.52564943  0.31812172    -0.01200
Br1110     Br  0.73267312  0.58238326  0.39073431    -0.01100
C1111       C  0.62819847  0.60537922  0.44779010    -0.02300
C1112       C  0.64682087  0.58235123  0.41167002     0.07400
C1113       C  0.65891168  0.60333562  0.36875776    -0.02400
C1114       C  0.66395282  0.64239105  0.37060576    -0.02400
C1115       C  0.64877115  0.66481214  0.41039118     0.07500
C1116       C  0.62453420  0.64352550  0.44040948    -0.02600
Br1117     Br  0.58344340  0.66427966  0.47108901    -0.01100
Br1118     Br  0.60800806  0.59009788  0.51285451    -0.01200
Br1119     Br  0.68742688  0.66381126  0.31181078    -0.01200
Br1120     Br  0.66820536  0.58018958  0.30440015    -0.01100
C1121       C  0.56478873  0.54378467  0.32644724    -0.02300
C1122       C  0.56983427  0.51996097  0.28602133     0.07400
C1123       C  0.60081514  0.49979768  0.28548525    -0.02400
C1124       C  0.62743740  0.50571211  0.32303190    -0.02400
C1125       C  0.61954682  0.52516776  0.37033036     0.07500
C1126       C  0.58513385  0.54117277  0.37063773    -0.02600
Br1127     Br  0.55926948  0.55562816  0.42979735    -0.01100
Br1128     Br  0.52934330  0.08201571  0.32225520    -0.01200
Br1129     Br  0.67367738  0.49034316  0.29864362    -0.01200
Br1130     Br  0.60831142  0.46696404  0.22896099    -0.01100
C1131       C  0.69844867  0.74960027  0.66148684    -0.02300
C1132       C  0.69443577  0.78558425  0.64295582     0.07400
C1133       C  0.72813936  0.80404491  0.64239200    -0.02400
C1134       C  0.76030840  0.78573772  0.63228803    -0.02400
C1135       C  0.76315541  0.74707475  0.63606781     0.07500
C1136       C  0.73101232  0.73034097  0.65561940    -0.02600
Br1137     Br  0.72788614  0.68119041  0.67491993    -0.01100
Br1138     Br  0.66859632  0.73253816  0.71708108    -0.01200
Br1139     Br  0.80105907  0.81685250  0.61899791    -0.01200
Br1140     Br  0.73553279  0.84925555  0.67856409    -0.01100
C1141       C  0.64775000  0.73900638  0.56269649    -0.02300
C1142       C  0.65158921  0.77811189  0.56517738     0.07400
C1143       C  0.64763933  0.79316307  0.51541911    -0.02400
C1144       C  0.64729086  0.77163553  0.46874685    -0.02400
C1145       C  0.64971090  0.73235708  0.46647103     0.07500
C1146       C  0.65116539  0.71750838  0.51685267    -0.02600
Br1147     Br  0.66358401  0.66816794  0.53069076    -0.01100
Br1148     Br  0.62588557  0.71152307  0.61688804    -0.01200
Br1149     Br  0.64017844  0.79929890  0.40795104    -0.01200
Br1150     Br  0.63259304  0.84246155  0.50893001    -0.01100
C1151       C  0.58942937  0.78211538  0.64127917    -0.02300
C1152       C  0.62458346  0.79308676  0.65801141     0.07400
C1153       C  0.62659311  0.80211137  0.71140682    -0.02400
C1154       C  0.59736195  0.79682684  0.74488742    -0.02400
C1155       C  0.56456446  0.78397265  0.72702495     0.07500
C1156       C  0.56110209  0.77526949  0.67564790    -0.02600
Br1157     Br  0.51513138  0.75811258  0.65128302    -0.01100
Br1158     Br  0.57339604  0.78682791  0.57303834    -0.01200
Br1159     Br  0.60246850  0.80537312  0.81714941    -0.01200
Br1160     Br  0.66779293  0.82357210  0.74272209    -0.01100
C1161       C  0.69997076  0.53576734  0.64124440    -0.02300
C1162       C  0.69663106  0.99697559  0.64526578     0.07400
C1163       C  0.72742927  0.98265374  0.66586212    -0.02400
C1164       C  0.76159037  0.99911562  0.65669810    -0.02400
C1165       C  0.76725130  0.53681842  0.64038306     0.07500
C1166       C  0.73362849  0.55471781  0.63589804    -0.02600
Br1167     Br  0.72910696  0.60364094  0.61379641    -0.01100
Br1168     Br  0.65721511  0.56361793  0.64014678    -0.01200
Br1169     Br  0.79906995  0.96667859  0.67272096    -0.01200
Br1170     Br  0.72273635  0.94328948  0.71394531    -0.01100
C1171       C  0.67922680  0.50961984  0.54344693    -0.02300
C1172       C  0.65663323  0.98361988  0.56608922     0.07400
C1173       C  0.62842831  0.97173886  0.53301763    -0.02400
C1174       C  0.62070322  0.49044669  0.48729947    -0.02400
C1175       C  0.64114170  0.52201082  0.47064858     0.07500
C1176       C  0.66739707  0.53258785  0.50618431    -0.02600
Br1177     Br  0.69131284  0.57794472  0.50498337    -0.01100
Br1178     Br  0.72863746  0.50337150  0.54014195    -0.01200
Br1179     Br  0.57807013  0.97375279  0.45146474    -0.01200
Br1180     Br  0.60155263  0.92856753  0.54889305    -0.01100
C1181       C  0.63328551  0.87001829  0.64190842    -0.02300
C1182       C  0.65834473  0.84678852  0.61688732     0.07400
C1183       C  0.68598014  0.86859757  0.59407427    -0.02400
C1184       C  0.69104639  0.90710192  0.60179464    -0.02400
C1185       C  0.66620839  0.92870325  0.62925427     0.07500
C1186       C  0.64123709  0.90623812  0.65599982    -0.02600
Br1187     Br  0.63247388  0.91209177  0.72719542    -0.01100
Br1188     Br  0.58266091  0.86304377  0.64406144    -0.01200
Br1189     Br  0.73926083  0.92389433  0.59143032    -0.01200
Br1190     Br  0.71759241  0.84761655  0.54845750    -0.01100
C1191       C  0.59450413  0.98636753  0.63784166    -0.02300
C1192       C  0.62909100  0.98514377  0.65915251     0.07400
C1193       C  0.62962607  0.99225271  0.71329000    -0.02400
C1194       C  0.59799786  0.98867131  0.74261838    -0.02400
C1195       C  0.56567146  0.97919047  0.71954530     0.07500
C1196       C  0.56483983  0.47724555  0.66667921    -0.02600
Br1197     Br  0.52018572  0.46992478  0.63262496    -0.01100
Br1198     Br  0.58386034  0.52366151  0.59134203    -0.01200
Br1199     Br  0.59869756  0.99495221  0.81563748    -0.01200
Br1200     Br  0.67017062  0.00987552  0.75137052    -0.01100
loop_ 
_geom_bond_atom_site_label_1 
_geom_bond_atom_site_label_2 
_geom_bond_distance 
_geom_bond_site_symmetry_2 
_ccdc_geom_bond_type 
C1          C562   1.630       .  S
C1          C572   1.638       .  S
C1          C585   1.655       .  S
C1          C592   1.612       .  S
C2          C532   1.664       .  S
C2          C542   1.687       .  S
C2          C552   1.609       .  S
C2          C582   1.684       .  S
C3          C502   1.642       .  S
C3          C512   1.682       .  S
C3          C525   1.619       .  S
C3          C575   1.632       .  S
C4          C482   1.661       .  S
C4          C495   1.629       .  S
C4          C515   1.672       .  S
C4          C545   1.681       .  S
In5           O7   2.210   1_565  S
In5           O8   2.239   1_565  S
In5          O16   2.270       .  S
In5          O10   2.229       .  S
In5          O12   2.270       .  S
In5          O13   2.235   1_565  S
In5          O14   2.217   1_565  S
In5         O617   2.274       .  S
C6           O12   1.266       .  A
C6           O14   1.254   1_565  A
C6          C455   1.479       .  S
O7           C15   1.259       .  A
O8           C15   1.260       .  A
C9           O16   1.265       .  A
C9           O10   1.256       .  A
C9          C472   1.488       .  S
C11          O13   1.257   1_565  A
C11         O617   1.264       .  A
C11        C1195   1.479       .  S
C15         C462   1.456       .  S
O17        In605   2.271       .  S
O17         C611   1.264       .  A
In18         O20   2.202       .  S
In18         O21   2.231       .  S
In18         O29   2.262       .  S
In18         O26   2.237       .  S
In18         O27   2.222       .  S
In18        O623   2.267       .  S
In18        O625   2.259       .  S
In18        O630   2.250       .  S
C19          O25   1.268       .  A
C19         O627   1.260   1_545  A
C19         C432   1.489       .  S
O20          C28   1.268       .  A
O21          C28   1.256       .  A
C22          O23   1.263   1_565  A
C22         O629   1.260       .  A
C22         C475   1.488       .  S
O23        In618   2.266   1_545  S
C24          O30   1.268       .  A
C24         O626   1.259   1_545  A
C24         C522   1.495       .  S
O25        In618   2.257   1_545  S
O26         C624   1.259       .  A
O27         C619   1.260       .  A
C28         C445   1.449       .  S
O29         C622   1.260       .  A
O30        In618   2.252   1_545  S
In31         O33   2.236       .  S
In31         O34   2.206       .  S
In31         O42   2.245       .  S
In31         O36   2.263       .  S
In31         O38   2.269       .  S
In31         O39   2.244       .  S
In31         O40   2.240       .  S
In31         O43   2.259       .  S
C32          O38   1.266       .  A
C32          O40   1.256       .  A
C32         C555   1.487       .  S
O33          C41   1.258       .  A
O34          C41   1.259       .  A
C35          O42   1.257       .  A
C35          O36   1.261       .  A
C35         C422   1.483       .  S
C37          O39   1.256       .  A
C37          O43   1.265       .  A
C37         C412   1.481       .  S
C41         C465   1.451       .  S
In44         O46   2.201       .  S
In44         O47   2.235       .  S
In44         O55   2.248       .  S
In44         O49   2.251       .  S
In44         O51   2.261       .  S
In44         O52   2.239       .  S
In44         O53   2.258       .  S
In44         O56   2.236       .  S
C45          O51   1.259       .  A
C45          O53   1.263       .  A
C45         C492   1.482       .  S
O46          C54   1.266       .  A
O47          C54   1.256       .  A
C48          O55   1.258       .  A
C48          O49   1.262       .  A
C48         C425   1.477       .  S
C50          O52   1.260       .  A
C50          O56   1.262       .  A
C50         C402   1.487       .  S
C54         C442   1.452       .  S
C57         C372   1.679       .  S
C57         C385   1.641       .  S
C57         C392   1.644       .  S
C57         C452   1.590       .  S
C58         C355   1.672       .  S
C58         C362   1.641       .  S
C58         C395   1.654       .  S
C58         C415   1.640       .  S
C59         C332   1.648       .  S
C59         C342   1.669       .  S
C59         C382   1.627       .  S
C59         C435   1.608       .  S
C60         C322   1.655       .  S
C60         C345   1.660       .  S
C60         C365   1.649       .  S
C60         C405   1.638       .  S
C61         C295   1.665       .  S
C61         C302   1.696       .  S
C61         C315   1.581       .  S
C61         C375   1.662       .  S
C62         C272   1.690       .  S
C62         C285   1.629       .  S
C62         C305   1.666       .  S
C62         C352   1.691       .  S
C63         C252   1.659       .  S
C63         C265   1.627       .  S
C63         C292   1.679       .  S
C63         C335   1.623       .  S
C64         C242   1.621       .  S
C64         C255   1.677       .  S
C64         C275   1.645       .  S
C64         C325   1.672       .  S
In65         O67   2.226   1_655  S
In65         O68   2.201       .  S
In65         O76   2.226       .  S
In65         O73   2.218       .  S
In65         O74   2.225   1_655  S
In65        O670   2.259       .  S
In65        O672   2.256   1_655  S
In65        O677   2.275       .  S
C66          O72   1.268       .  A
C66         O674   1.258       .  A
C66         C312   1.482       .  S
O67          C75   1.260   1_455  A
O68          C75   1.264       .  A
C69          O70   1.265       .  A
C69         O676   1.259       .  A
C69         C232   1.487       .  S
O70        In665   2.263       .  S
C71          O77   1.266       .  A
C71         O673   1.258       .  A
C71         C212   1.483       .  S
O72        In665   2.257   1_455  S
O73         C671   1.258       .  A
O74         C666   1.258       .  A
C75         C222   1.454   1_655  S
O76         C669   1.259       .  A
O77        In665   2.276       .  S
In78         O80   2.224   1_655  S
In78         O81   2.218       .  S
In78         O89   2.237       .  S
In78         O83   2.266   1_545  S
In78         O85   2.250   1_645  S
In78         O86   2.210       .  S
In78         O87   2.257   1_545  S
In78        O690   2.245   1_545  S
C79          O85   1.263       .  A
C79          O87   1.259   1_455  A
C79         C262   1.487       .  S
O80          C88   1.259   1_455  A
O81          C88   1.255       .  A
C82          O89   1.256       .  A
C82          O83   1.266   1_545  A
C82         C235   1.477       .  S
C84          O86   1.260   1_565  A
C84         O690   1.268       .  A
C84         C795   1.467       .  S
C88         C205   1.471   1_655  S
O90        In678   2.245       .  S
O90         C684   1.268       .  A
In91         O93   2.192       .  S
In91         O94   2.236   1_655  S
In91        O102   2.263       .  S
In91         O96   2.243       .  S
In91         O98   2.274       .  S
In91         O99   2.240   1_655  S
In91        O100   2.225       .  S
In91        O103   2.259   1_655  S
C92          O98   1.266       .  A
C92         O100   1.256       .  A
C92         C175   1.479       .  S
O93         C101   1.261       .  A
O94         C101   1.259   1_455  A
C95         O102   1.261       .  A
C95          O96   1.257       .  A
C95         C185   1.488       .  S
C97          O99   1.258       .  A
C97         O103   1.267       .  A
C97         C282   1.488       .  S
C101        C225   1.453   1_655  S
In104       O106   2.199   1_655  S
In104       O107   2.224       .  S
In104       O115   2.238       .  S
In104       O109   2.257       .  S
In104       O111   2.262       .  S
In104       O112   2.212   1_655  S
In104       O113   2.218       .  S
In104       O116   2.240   1_655  S
C105        O111   1.267       .  A
C105        O113   1.257       .  A
C105        C162   1.481       .  S
O106        C114   1.265       .  A
O107        C114   1.258   1_655  A
C108        O115   1.257       .  A
C108        O109   1.265       .  A
C108        C182   1.477       .  S
C110        O112   1.258       .  A
C110        O116   1.267       .  A
C110        C245   1.495       .  S
C114        C202   1.450       .  S
C117        C142   1.678       .  S
C117        C152   1.688       .  S
C117        C215   1.629       .  S
C117        C565   1.650       .  S
C118        C135   1.645       .  S
C118        C155   1.678       .  S
C118        C172   1.617       .  S
C118        C535   1.649       .  S
C119        C122   1.709       .  S
C119        C145   1.680       .  S
C119        C192   1.586       .  S
C119        C505   1.654       .  S
C120        C125   1.674       .  S
C120        C132   1.642       .  S
C120        C165   1.594       .  S
C120        C485   1.647       .  S
C121        C122   1.440       .  A
C121        C126   1.444       .  A
C121       Br128   1.938       .  S
C122        C123   1.484       .  A
C123        C124   1.457       .  A
C123       Br130   1.930       .  S
C124        C125   1.458       .  A
C124       Br129   1.934       .  S
C125        C126   1.431       .  A
C126       Br127   1.896       .  S
C131        C132   1.464       .  A
C131        C136   1.460       .  A
C131       Br138   1.949       .  S
C132        C133   1.422       .  A
C133        C134   1.398       .  A
C133       Br140   1.920       .  S
C134        C135   1.422       .  A
C134       Br139   1.900       .  S
C135        C136   1.452       .  A
C136       Br137   1.959       .  S
C141        C142   1.456   1_565  A
C141        C746   1.468       .  A
C141       Br148   1.953       .  S
C142        C143   1.436       .  A
C143        C144   1.431       .  A
C143       Br150   1.878       .  S
C144        C745   1.447   1_545  A
C144       Br749   1.937       .  S
C145        C146   1.444       .  A
C145        C744   1.447       .  A
C146        C741   1.468       .  A
C146       Br147   1.887       .  S
Br149       C744   1.936       .  S
C151        C152   1.449       .  A
C151        C156   1.438       .  A
C151       Br158   1.946       .  S
C152        C153   1.457       .  A
C153        C154   1.450       .  A
C153       Br160   1.915       .  S
C154        C155   1.448       .  A
C154       Br159   1.923       .  S
C155        C156   1.450       .  A
C156       Br157   1.912       .  S
C161        C162   1.397       .  A
C161        C166   1.412       .  A
C161       Br168   1.941       .  S
C162        C163   1.399       .  A
C163        C164   1.418       .  A
C163       Br170   1.944       .  S
C164        C165   1.457       .  A
C164       Br169   1.943       .  S
C165        C166   1.453       .  A
C166       Br167   1.943       .  S
C171        C172   1.411       .  A
C171        C176   1.397       .  A
C171       Br178   1.934       .  S
C172        C173   1.465       .  A
C173        C174   1.429       .  A
C173       Br180   1.949       .  S
C174        C175   1.409       .  A
C174       Br179   1.940       .  S
C175        C176   1.396       .  A
C176       Br177   1.926       .  S
C181        C182   1.405   1_455  A
C181        C186   1.408   1_554  A
C181       Br188   1.934       .  S
C182        C183   1.408       .  A
C183        C184   1.411   1_554  A
C183       Br190   1.928       .  S
C184        C185   1.414       .  A
C184       Br189   1.931       .  S
C185        C186   1.420   1_655  A
C186       Br187   1.932       .  S
C191        C192   1.449       .  A
C191        C196   1.398       .  A
C191       Br198   1.938       .  S
C192        C193   1.449       .  A
C193        C194   1.419       .  A
C193       Br200   1.937       .  S
C194        C195   1.394       .  A
C194       Br199   1.932       .  S
C195        C684   1.466       .  S
C195        C196   1.393       .  A
C196       Br797   1.938       .  S
Br197       C796   1.937   1_545  S
C201        C202   1.401       .  A
C201        C206   1.397       .  A
C201       Br208   1.921       .  S
C202        C203   1.400   1_455  A
C203        C204   1.397       .  A
C203       Br210   1.925       .  S
C204        C205   1.413   1_655  A
C204       Br209   1.926       .  S
C205        C206   1.409       .  A
C206       Br207   1.930       .  S
C211        C212   1.385       .  A
C211        C216   1.412       .  A
C211       Br218   1.942       .  S
C212        C213   1.392       .  A
C213        C214   1.426       .  A
C213       Br820   1.950       .  S
C214        C215   1.478       .  A
C214       Br219   1.962       .  S
C215        C216   1.456       .  A
C216       Br217   1.922       .  S
Br220       C813   1.951       .  S
C221        C222   1.409       .  A
C221        C226   1.402       .  A
C221       Br228   1.930       .  S
C222        C223   1.405   1_455  A
C223        C224   1.396       .  A
C223       Br230   1.930       .  S
C224        C225   1.405   1_655  A
C224       Br229   1.932       .  S
C225        C226   1.405       .  A
C226       Br227   1.928       .  S
C231        C236   1.412       .  A
C231        C832   1.414   1_554  A
C231       Br238   1.932   1_554  S
C232        C233   1.417   1_556  A
C232        C831   1.414   1_556  A
C233        C234   1.409       .  A
C233       Br240   1.931   1_654  S
C234        C235   1.405       .  A
C234       Br239   1.932   1_655  S
C235        C836   1.409       .  A
C236        C835   1.409       .  A
C236       Br237   1.930       .  S
C241        C242   1.468       .  A
C241        C246   1.428       .  A
C241       Br248   1.951       .  S
C242        C243   1.449       .  A
C243        C244   1.407       .  A
C243       Br250   1.918       .  S
C244        C245   1.394       .  A
C244       Br249   1.946       .  S
C245        C246   1.405       .  A
C246       Br247   1.949       .  S
C251        C252   1.465       .  A
C251        C256   1.442       .  A
C251       Br258   1.979       .  S
C252        C253   1.433       .  A
C253        C254   1.434       .  A
C253       Br260   1.920       .  S
C254        C255   1.458       .  A
C254       Br259   1.937       .  S
C255        C256   1.447       .  A
C256       Br257   1.924       .  S
C261        C266   1.411       .  A
C261        C862   1.383       .  A
C261       Br268   1.948       .  S
C262        C263   1.402       .  A
C262        C861   1.383       .  A
C263        C264   1.418       .  A
C263       Br270   1.934   1_565  S
C264        C865   1.462       .  A
C264       Br269   1.948   1_565  S
C265        C266   1.464       .  A
C265        C864   1.460       .  A
C266       Br267   1.915       .  S
C271        C272   1.442       .  A
C271        C276   1.457       .  A
C271       Br278   1.899       .  S
C272        C273   1.420       .  A
C273        C274   1.418       .  A
C273       Br280   1.833       .  S
C274        C275   1.421       .  A
C274       Br279   1.921       .  S
C275        C276   1.453       .  A
C276       Br277   1.938       .  S
C281        C282   1.394       .  A
C281        C286   1.418       .  A
C281       Br288   1.947       .  S
C282        C283   1.395       .  A
C283        C284   1.417       .  A
C283       Br290   1.942       .  S
C284        C285   1.447       .  A
C284       Br289   1.890       .  S
C285        C286   1.456       .  A
C286       Br287   1.908       .  S
C291        C292   1.444       .  A
C291        C296   1.442       .  A
C291       Br298   1.922       .  S
C292        C893   1.465       .  A
C293        C294   1.454       .  A
C293        C892   1.466   1_545  A
C293       Br300   1.930       .  S
C294        C295   1.427       .  A
C294       Br299   1.914       .  S
C295        C896   1.453   1_545  A
C296        C895   1.458       .  A
C296       Br297   1.935       .  S
C301        C302   1.456       .  A
C301        C306   1.443       .  A
C301       Br308   1.942       .  S
C302        C303   1.422       .  A
C303        C304   1.432       .  A
C303       Br310   1.924       .  S
C304        C305   1.437       .  A
C304       Br309   1.861       .  S
C305        C306   1.456       .  A
C306       Br307   1.954       .  S
C311        C312   1.402       .  A
C311        C316   1.416       .  A
C311       Br918   1.942       .  S
C312        C313   1.401       .  A
C313        C314   1.410       .  A
C313       Br320   1.935       .  S
C314        C315   1.449       .  A
C314       Br319   1.952       .  S
C315        C316   1.448       .  A
C316       Br317   1.931       .  S
Br318       C911   1.942       .  S
C321        C322   1.450       .  A
C321        C326   1.449       .  A
C321       Br328   1.946       .  S
C322        C323   1.448       .  A
C323        C324   1.446       .  A
C323       Br330   1.959       .  S
C324        C325   1.445       .  A
C324       Br329   1.908       .  S
C325        C326   1.455       .  A
C326       Br327   1.947       .  S
C331        C332   1.449       .  A
C331        C336   1.446       .  A
C331       Br338   1.908       .  S
C332        C933   1.430   1_545  A
C333        C334   1.421       .  A
C333        C932   1.430       .  A
C333       Br340   1.930       .  S
C334        C335   1.437       .  A
C334       Br339   1.932       .  S
C335        C936   1.446       .  A
C336        C935   1.444   1_545  A
C336       Br337   1.945       .  S
C341        C342   1.468       .  A
C341        C346   1.447       .  A
C341       Br348   1.949       .  S
C342        C343   1.444       .  A
C343        C344   1.432       .  A
C343       Br350   1.937       .  S
C344        C345   1.440       .  A
C344       Br349   1.933       .  S
C345        C346   1.456       .  A
C346       Br347   1.978       .  S
C351        C352   1.459       .  A
C351        C356   1.463       .  A
C351       Br358   1.924       .  S
C352        C353   1.413       .  A
C353        C354   1.434       .  A
C353       Br360   1.930       .  S
C354        C355   1.457       .  A
C354       Br359   1.881       .  S
C355        C356   1.431       .  A
C356       Br357   1.942       .  S
C361        C362   1.422       .  A
C361        C366   1.420       .  A
C361       Br368   1.925       .  S
C362        C363   1.444       .  A
C363        C364   1.464       .  A
C363       Br370   1.942       .  S
C364        C365   1.458       .  A
C364       Br369   1.932       .  S
C365        C366   1.427       .  A
C366       Br367   1.915       .  S
C371        C376   1.419       .  A
C371        C972   1.399   1_545  A
C371       Br378   1.934       .  S
C372        C373   1.466       .  A
C372        C971   1.403       .  A
C373        C374   1.468       .  A
C373       Br380   1.887       .  S
C374        C975   1.461       .  A
C374       Br379   1.948       .  S
C375        C376   1.440       .  A
C375        C974   1.465   1_545  A
C376       Br377   1.876       .  S
C381        C382   1.423       .  A
C381        C386   1.413       .  A
C381       Br388   1.908       .  S
C382        C383   1.442       .  A
C383        C984   1.432       .  A
C383       Br990   1.929   1_545  S
C384        C385   1.460       .  A
C384        C983   1.436       .  A
C384       Br389   1.938       .  S
C385        C986   1.418       .  A
C386        C985   1.418   1_545  A
C386       Br387   1.864   1_545  S
Br390       C983   1.932       .  S
C391        C392   1.445       .  A
C391        C396   1.441       .  A
C391       Br398   1.951       .  S
C392        C393   1.440       .  A
C393        C394   1.439       .  A
C393       Br400   1.914       .  S
C394        C395   1.431       .  A
C394       Br399   1.907       .  S
C395        C396   1.450       .  A
C396       Br397   1.951       .  S
C401        C402   1.387       .  A
C401        C406   1.404       .  A
C401       Br408   1.947       .  S
C402        C403   1.396       .  A
C403        C404   1.426       .  A
C403       Br410   1.943       .  S
C404        C405   1.475       .  A
C404       Br409   1.947       .  S
C405        C406   1.454       .  A
C406       Br407   1.906       .  S
C411        C412   1.407       .  A
C411        C416   1.424       .  A
C411       Br418   1.942       .  S
C412        C413   1.393       .  A
C413        C414   1.397       .  A
C413       Br420   1.927       .  S
C414        C415   1.417       .  A
C414       Br419   1.897       .  S
C415        C416   1.458       .  A
C416       Br417   1.940       .  S
C421        C422   1.412   1_554  A
C421        C426   1.410       .  A
C421       Br428   1.929   1_554  S
C422        C423   1.416   1_556  A
C423        C424   1.409       .  A
C423       Br430   1.932   1_554  S
C424        C425   1.407       .  A
C424       Br429   1.932       .  S
C425        C426   1.410       .  A
C426       Br427   1.931       .  S
C431        C432   1.400       .  A
C431        C436   1.415       .  A
C431       Br438   1.939       .  S
C432       C1033   1.396       .  A
C433       C1032   1.397       .  A
C433       C1034   1.421       .  A
C433       Br440   1.948       .  S
C434        C435   1.467       .  A
C434       C1033   1.421       .  A
C434      Br1039   1.953       .  S
C435        C436   1.446       .  A
C436       Br437   1.934       .  S
Br439      C1034   1.956       .  S
C441        C442   1.402       .  A
C441        C446   1.398       .  A
C441       Br448   1.924       .  S
C442        C443   1.404       .  A
C443        C444   1.397       .  A
C443       Br450   1.923       .  S
C444        C445   1.402       .  A
C444       Br449   1.926       .  S
C445        C446   1.404       .  A
C446       Br447   1.925       .  S
C451        C456   1.406       .  A
C451       C1052   1.422   1_545  A
C451       Br458   1.936       .  S
C452        C453   1.449       .  A
C452       C1051   1.420       .  A
C453        C454   1.413       .  A
C453       Br460   1.940       .  S
C454       C1055   1.400       .  A
C454       Br459   1.941       .  S
C455        C456   1.407   1_565  A
C455       C1054   1.401       .  A
C456       Br457   1.930       .  S
C461        C462   1.408       .  A
C461        C466   1.399       .  A
C461       Br468   1.932       .  S
C462        C463   1.408       .  A
C463        C464   1.402       .  A
C463       Br470   1.928       .  S
C464        C465   1.403       .  A
C464       Br469   1.931       .  S
C465        C466   1.405       .  A
C466       Br467   1.930       .  S
C471        C472   1.414       .  A
C471        C476   1.411   1_556  A
C471       Br478   1.932       .  S
C472        C473   1.415       .  A
C473        C474   1.413   1_556  A
C473       Br480   1.933       .  S
C474        C475   1.412       .  A
C474       Br479   1.930       .  S
C475        C476   1.410       .  A
C476       Br477   1.929       .  S
C481        C482   1.439       .  A
C481        C486   1.431       .  A
C481       Br488   1.913       .  S
C482        C483   1.457       .  A
C483        C484   1.456       .  A
C483       Br490   1.924       .  S
C484        C485   1.431       .  A
C484       Br489   1.922       .  S
C485        C486   1.431       .  A
C486       Br487   1.925       .  S
C491        C492   1.396       .  A
C491        C496   1.407       .  A
C491       Br498   1.924       .  S
C492        C493   1.402       .  A
C493        C494   1.422       .  A
C493       Br500   1.941       .  S
C494        C495   1.459       .  A
C494       Br499   1.922       .  S
C495        C496   1.440       .  A
C496       Br497   1.931       .  S
C501        C506   1.419       .  A
C501       C1102   1.447       .  A
C501       Br508   1.941       .  S
C502        C503   1.437       .  A
C502       C1101   1.447   1_545  A
C503        C504   1.435       .  A
C503       Br510   1.910       .  S
C504       C1105   1.457   1_545  A
C504       Br509   1.941       .  S
C505        C506   1.440       .  A
C505       C1104   1.458       .  A
C506       Br507   1.912       .  S
C511        C512   1.464       .  A
C511        C516   1.441       .  A
C511       Br518   1.956       .  S
C512        C513   1.446       .  A
C513        C514   1.460       .  A
C513       Br520   1.933       .  S
C514        C515   1.460       .  A
C514       Br519   1.947       .  S
C515        C516   1.432       .  A
C516       Br517   1.919       .  S
C521        C522   1.395       .  A
C521        C526   1.405       .  A
C521      Br1128   1.938       .  S
C522        C523   1.404       .  A
C523        C524   1.428       .  A
C523       Br530   1.945   1_545  S
C524        C525   1.472       .  A
C524       Br529   1.955   1_545  S
C525        C526   1.443       .  A
C526       Br527   1.916       .  S
Br528      C1121   1.937       .  S
C531        C532   1.439       .  A
C531        C536   1.445       .  A
C531       Br538   1.944       .  S
C532        C533   1.430       .  A
C533        C534   1.429       .  A
C533       Br540   1.941       .  S
C534        C535   1.447       .  A
C534       Br539   1.931       .  S
C535        C536   1.444       .  A
C536       Br537   1.900       .  S
C541        C542   1.457       .  A
C541        C546   1.452       .  A
C541       Br548   1.932       .  S
C542        C543   1.442       .  A
C543        C544   1.464       .  A
C543       Br550   1.941       .  S
C544        C545   1.466       .  A
C544       Br549   1.935       .  S
C545        C546   1.445       .  A
C546       Br547   1.938       .  S
C551        C552   1.449       .  A
C551        C556   1.417       .  A
C551       Br558   1.917       .  S
C552        C553   1.447       .  A
C553        C554   1.418       .  A
C553       Br560   1.919       .  S
C554        C555   1.398       .  A
C554       Br559   1.941       .  S
C555        C556   1.397       .  A
C556       Br557   1.944       .  S
C561        C566   1.442       .  A
C561       C1162   1.437   1_545  A
C561       Br568   1.940       .  S
C562        C563   1.406       .  A
C562       C1161   1.437       .  A
C563        C564   1.433       .  A
C563       Br570   1.947       .  S
C564       C1165   1.465       .  A
C564       Br569   1.933       .  S
C565        C566   1.454       .  A
C565       C1164   1.465   1_545  A
C566       Br567   1.926       .  S
C571        C576   1.390       .  A
C571       C1172   1.404   1_545  A
C571       Br578   1.888       .  S
C572        C573   1.440       .  A
C572       C1171   1.402       .  A
C573       C1174   1.463       .  A
C573       Br580   1.924       .  S
C574        C575   1.457   1_565  A
C574       C1173   1.464       .  A
C574      Br1179   1.931       .  S
C575        C576   1.415       .  A
C576       Br577   1.893       .  S
Br579      C1174   1.931       .  S
C581        C582   1.452       .  A
C581        C586   1.417       .  A
C581       Br588   1.924       .  S
C582        C583   1.438       .  A
C583        C584   1.451       .  A
C583       Br590   1.871       .  S
C584        C585   1.437       .  A
C584       Br589   1.928       .  S
C585        C586   1.427       .  A
C586       Br587   1.919       .  S
C591        C592   1.429       .  A
C591       C1196   1.401       .  A
C591      Br1198   1.920       .  S
C592        C593   1.449       .  A
C593        C594   1.421       .  A
C593       Br600   1.933       .  S
C594        C595   1.402       .  A
C594       Br599   1.940       .  S
C595        C611   1.475       .  S
C595       C1196   1.395       .  A
C596       C1191   1.400       .  A
C596       C1195   1.397       .  A
C596       Br597   1.925       .  S
Br598      C1191   1.921   1_545  S
C601       C1162   1.628       .  S
C601       C1172   1.640       .  S
C601       C1185   1.658       .  S
C601       C1192   1.613       .  S
C602       C1132   1.664       .  S
C602       C1142   1.686       .  S
C602       C1152   1.613       .  S
C602       C1182   1.685       .  S
C603       C1102   1.643       .  S
C603       C1112   1.682       .  S
C603       C1125   1.618       .  S
C603       C1175   1.630       .  S
C604       C1082   1.663       .  S
C604       C1095   1.632       .  S
C604       C1115   1.671       .  S
C604       C1145   1.680       .  S
In605       O607   2.211       .  S
In605       O608   2.238       .  S
In605       O616   2.267       .  S
In605       O610   2.222       .  S
In605       O612   2.266       .  S
In605       O613   2.227       .  S
In605       O614   2.212       .  S
C606        O612   1.266       .  A
C606        O614   1.253       .  A
C606       C1055   1.477       .  S
O607        C615   1.258       .  A
O608        C615   1.260       .  A
C609        O616   1.262       .  A
C609        O610   1.257       .  A
C609       C1072   1.489       .  S
C611        O613   1.257       .  A
C615       C1062   1.459       .  S
In618       O620   2.204       .  S
In618       O621   2.231       .  S
In618       O629   2.266       .  S
In618       O626   2.231       .  S
In618       O627   2.223       .  S
C619        O625   1.267       .  A
C619       C1032   1.491       .  S
O620        C628   1.267       .  A
O621        C628   1.255       .  A
C622        O623   1.263       .  A
C622       C1075   1.485       .  S
C624        O630   1.267       .  A
C624       C1122   1.497       .  S
C628       C1045   1.449       .  S
In631       O633   2.237       .  S
In631       O634   2.215       .  S
In631       O642   2.242       .  S
In631       O636   2.259       .  S
In631       O638   2.271       .  S
In631       O639   2.244       .  S
In631       O640   2.242       .  S
In631       O643   2.266       .  S
C632        O638   1.266       .  A
C632        O640   1.258       .  A
C632       C1155   1.490       .  S
O633        C641   1.259       .  A
O634        C641   1.259       .  A
C635        O642   1.256       .  A
C635        O636   1.260       .  A
C635       C1022   1.479       .  S
C637        O639   1.255       .  A
C637        O643   1.265       .  A
C637       C1012   1.488       .  S
C641       C1065   1.458       .  S
In644       O646   2.203       .  S
In644       O647   2.236       .  S
In644       O655   2.247       .  S
In644       O649   2.249       .  S
In644       O651   2.261       .  S
In644       O652   2.248       .  S
In644       O653   2.257       .  S
In644       O656   2.227       .  S
C645        O651   1.258       .  A
C645        O653   1.262       .  A
C645       C1092   1.481       .  S
O646        C654   1.266       .  A
O647        C654   1.255       .  A
C648        O655   1.259       .  A
C648        O649   1.262       .  A
C648       C1025   1.476       .  S
C650        O652   1.263       .  A
C650        O656   1.262       .  A
C650       C1002   1.490       .  S
C654       C1042   1.453       .  S
C657        C972   1.672       .  S
C657        C985   1.639       .  S
C657        C992   1.643       .  S
C657       C1052   1.588       .  S
C658        C955   1.672       .  S
C658        C962   1.647       .  S
C658        C995   1.645       .  S
C658       C1015   1.641       .  S
C659        C932   1.646       .  S
C659        C942   1.671       .  S
C659        C982   1.630       .  S
C659       C1035   1.608       .  S
C660        C922   1.656       .  S
C660        C945   1.663       .  S
C660        C965   1.650       .  S
C660       C1005   1.641       .  S
C661        C895   1.673       .  S
C661        C902   1.696       .  S
C661        C915   1.584       .  S
C661        C975   1.661       .  S
C662        C872   1.685       .  S
C662        C885   1.626       .  S
C662        C905   1.666       .  S
C662        C952   1.690       .  S
C663        C852   1.655       .  S
C663        C865   1.629       .  S
C663        C892   1.669       .  S
C663        C935   1.624       .  S
C664        C842   1.624       .  S
C664        C855   1.668       .  S
C664        C875   1.648       .  S
C664        C925   1.668       .  S
In665       O667   2.229   1_645  S
In665       O668   2.203   1_545  S
In665       O676   2.226       .  S
In665       O673   2.218       .  S
In665       O674   2.225   1_655  S
C666        O672   1.268       .  A
C666        C912   1.483       .  S
O667        C675   1.260   1_455  A
O668        C675   1.263       .  A
C669        O670   1.265       .  A
C669        C832   1.485       .  S
C671        O677   1.266       .  A
C671        C812   1.481       .  S
C675        C822   1.455   1_655  S
In678       O680   2.224   1_655  S
In678       O681   2.213       .  S
In678       O689   2.231       .  S
In678       O683   2.264       .  S
In678       O685   2.250   1_655  S
In678       O686   2.210       .  S
In678       O687   2.256       .  S
C679        O685   1.264       .  A
C679        O687   1.259   1_455  A
C679        C862   1.488       .  S
O680        C688   1.258   1_455  A
O681        C688   1.255       .  A
C682        O689   1.256       .  A
C682        O683   1.266       .  A
C682        C835   1.475       .  S
C684        O686   1.259       .  A
C688        C805   1.470   1_655  S
In691       O693   2.195       .  S
In691       O694   2.239   1_655  S
In691       O702   2.260       .  S
In691       O696   2.242       .  S
In691       O698   2.272       .  S
In691       O699   2.237   1_655  S
In691       O700   2.225       .  S
In691       O703   2.259   1_655  S
C692        O698   1.266       .  A
C692        O700   1.256       .  A
C692        C775   1.479       .  S
O693        C701   1.261       .  A
O694        C701   1.258   1_455  A
C695        O702   1.261       .  A
C695        O696   1.257       .  A
C695        C785   1.486       .  S
C697        O699   1.258       .  A
C697        O703   1.267       .  A
C697        C882   1.488       .  S
C701        C825   1.455   1_655  S
In704       O706   2.199   1_655  S
In704       O707   2.223       .  S
In704       O715   2.236       .  S
In704       O709   2.259       .  S
In704       O711   2.265       .  S
In704       O712   2.213   1_655  S
In704       O713   2.217       .  S
In704       O716   2.242   1_655  S
C705        O711   1.267       .  A
C705        O713   1.257       .  A
C705        C762   1.481       .  S
O706        C714   1.264       .  A
O707        C714   1.258   1_655  A
C708        O715   1.256       .  A
C708        O709   1.266       .  A
C708        C782   1.477       .  S
C710        O712   1.257       .  A
C710        O716   1.268       .  A
C710        C845   1.495       .  S
C714        C802   1.449       .  S
C717        C742   1.678       .  S
C717        C752   1.691       .  S
C717        C815   1.630       .  S
C717       C1165   1.651       .  S
C718        C735   1.646       .  S
C718        C755   1.679       .  S
C718        C772   1.618       .  S
C718       C1135   1.649       .  S
C719        C722   1.709       .  S
C719        C745   1.680       .  S
C719        C792   1.588       .  S
C719       C1105   1.654       .  S
C720        C725   1.674       .  S
C720        C732   1.644       .  S
C720        C765   1.595       .  S
C720       C1085   1.649       .  S
C721        C722   1.441       .  A
C721        C726   1.445       .  A
C721       Br728   1.938       .  S
C722        C723   1.483       .  A
C723        C724   1.456       .  A
C723       Br730   1.929       .  S
C724        C725   1.458       .  A
C724       Br729   1.932       .  S
C725        C726   1.431       .  A
C726       Br727   1.894       .  S
C731        C732   1.465       .  A
C731        C736   1.461       .  A
C731       Br738   1.946       .  S
C732        C733   1.421       .  A
C733        C734   1.398       .  A
C733       Br740   1.918       .  S
C734        C735   1.421       .  A
C734       Br739   1.896       .  S
C735        C736   1.451       .  A
C736       Br737   1.959       .  S
C741        C742   1.456       .  A
C741       Br748   1.953       .  S
C742        C743   1.436       .  A
C743        C744   1.431       .  A
C743       Br750   1.882       .  S
C745        C746   1.444       .  A
C746       Br747   1.885       .  S
C751        C752   1.451       .  A
C751        C756   1.440       .  A
C751       Br758   1.947       .  S
C752        C753   1.456       .  A
C753        C754   1.450       .  A
C753       Br760   1.913       .  S
C754        C755   1.448       .  A
C754       Br759   1.925       .  S
C755        C756   1.452       .  A
C756       Br757   1.915       .  S
C761        C762   1.397       .  A
C761        C766   1.413       .  A
C761       Br768   1.942       .  S
C762        C763   1.399       .  A
C763        C764   1.419       .  A
C763       Br770   1.944       .  S
C764        C765   1.456       .  A
C764       Br769   1.941       .  S
C765        C766   1.454       .  A
C766       Br767   1.944       .  S
C771        C772   1.410       .  A
C771        C776   1.397       .  A
C771       Br778   1.933       .  S
C772        C773   1.467       .  A
C773        C774   1.429       .  A
C773       Br780   1.949       .  S
C774        C775   1.409       .  A
C774       Br779   1.941       .  S
C775        C776   1.396       .  A
C776       Br777   1.925       .  S
C781        C782   1.405   1_455  A
C781        C786   1.408   1_554  A
C781       Br788   1.934       .  S
C782        C783   1.409       .  A
C783        C784   1.411   1_554  A
C783       Br790   1.928       .  S
C784        C785   1.413       .  A
C784       Br789   1.930       .  S
C785        C786   1.419   1_655  A
C786       Br787   1.932       .  S
C791        C792   1.449       .  A
C791        C796   1.400       .  A
C791       Br798   1.939       .  S
C792        C793   1.450       .  A
C793        C794   1.419       .  A
C793       Br800   1.936       .  S
C794        C795   1.394       .  A
C794       Br799   1.932       .  S
C795        C796   1.393       .  A
C801        C802   1.401       .  A
C801        C806   1.397       .  A
C801       Br808   1.922       .  S
C802        C803   1.401   1_455  A
C803        C804   1.397       .  A
C803       Br810   1.925       .  S
C804        C805   1.412   1_655  A
C804       Br809   1.927       .  S
C805        C806   1.410       .  A
C806       Br807   1.929       .  S
C811        C812   1.385       .  A
C811        C816   1.413       .  A
C811       Br818   1.944       .  S
C812        C813   1.392       .  A
C813        C814   1.425       .  A
C814        C815   1.479       .  A
C814       Br819   1.964       .  S
C815        C816   1.456       .  A
C816       Br817   1.921       .  S
C821        C822   1.409       .  A
C821        C826   1.403       .  A
C821       Br828   1.930       .  S
C822        C823   1.405   1_455  A
C823        C824   1.397       .  A
C823       Br830   1.929       .  S
C824        C825   1.404   1_655  A
C824       Br829   1.931       .  S
C825        C826   1.405       .  A
C826       Br827   1.928       .  S
C831        C836   1.412       .  A
C831       Br838   1.932   1_554  S
C832        C833   1.417   1_556  A
C833        C834   1.408       .  A
C833       Br840   1.931   1_654  S
C834        C835   1.405       .  A
C834       Br839   1.932   1_655  S
C836       Br837   1.930       .  S
C841        C842   1.469       .  A
C841        C846   1.429       .  A
C841       Br848   1.954       .  S
C842        C843   1.450       .  A
C843        C844   1.405       .  A
C843       Br850   1.917       .  S
C844        C845   1.392       .  A
C844       Br849   1.946       .  S
C845        C846   1.406       .  A
C846       Br847   1.949       .  S
C851        C852   1.464       .  A
C851        C856   1.440       .  A
C851       Br858   1.982       .  S
C852        C853   1.433       .  A
C853        C854   1.432       .  A
C853       Br860   1.919       .  S
C854        C855   1.455       .  A
C854       Br859   1.940       .  S
C855        C856   1.448       .  A
C856       Br857   1.924       .  S
C861        C866   1.413       .  A
C861       Br868   1.948       .  S
C862        C863   1.403       .  A
C863        C864   1.419       .  A
C863       Br870   1.935       .  S
C864       Br869   1.947       .  S
C865        C866   1.463       .  A
C866       Br867   1.912       .  S
C871        C872   1.438       .  A
C871        C876   1.456       .  A
C871       Br878   1.901       .  S
C872        C873   1.419       .  A
C873        C874   1.416       .  A
C873       Br880   1.834       .  S
C874        C875   1.424       .  A
C874       Br879   1.919       .  S
C875        C876   1.454       .  A
C876       Br877   1.937       .  S
C881        C882   1.395       .  A
C881        C886   1.417       .  A
C881       Br888   1.948       .  S
C882        C883   1.396       .  A
C883        C884   1.417       .  A
C883       Br890   1.940       .  S
C884        C885   1.446       .  A
C884       Br889   1.895       .  S
C885        C886   1.457       .  A
C886       Br887   1.911       .  S
C891        C892   1.441       .  A
C891        C896   1.430       .  A
C891       Br898   1.913       .  S
C893        C894   1.456       .  A
C893       Br900   1.929       .  S
C894        C895   1.429       .  A
C894       Br899   1.916       .  S
C896       Br897   1.942       .  S
C901        C902   1.460       .  A
C901        C906   1.446       .  A
C901       Br908   1.943       .  S
C902        C903   1.427       .  A
C903        C904   1.430       .  A
C903       Br910   1.931       .  S
C904        C905   1.432       .  A
C904       Br909   1.853       .  S
C905        C906   1.455       .  A
C906       Br907   1.955       .  S
C911        C912   1.402       .  A
C911        C916   1.417       .  A
C912        C913   1.401       .  A
C913        C914   1.410       .  A
C913       Br920   1.937       .  S
C914        C915   1.448       .  A
C914       Br919   1.945       .  S
C915        C916   1.448       .  A
C916       Br917   1.928       .  S
C921        C922   1.449       .  A
C921        C926   1.447       .  A
C921       Br928   1.938       .  S
C922        C923   1.448       .  A
C923        C924   1.447       .  A
C923       Br930   1.962       .  S
C924        C925   1.447       .  A
C924       Br929   1.909       .  S
C925        C926   1.453       .  A
C926       Br927   1.949       .  S
C931        C932   1.448       .  A
C931        C936   1.444       .  A
C931       Br938   1.906       .  S
C933        C934   1.420       .  A
C933       Br940   1.930       .  S
C934        C935   1.437       .  A
C934       Br939   1.930       .  S
C936       Br937   1.949       .  S
C941        C942   1.466       .  A
C941        C946   1.447       .  A
C941       Br948   1.950       .  S
C942        C943   1.447       .  A
C943        C944   1.436       .  A
C943       Br950   1.938       .  S
C944        C945   1.441       .  A
C944       Br949   1.934       .  S
C945        C946   1.456       .  A
C946       Br947   1.976       .  S
C951        C952   1.456       .  A
C951        C956   1.461       .  A
C951       Br958   1.922       .  S
C952        C953   1.416       .  A
C953        C954   1.438       .  A
C953       Br960   1.930       .  S
C954        C955   1.464       .  A
C954       Br959   1.907       .  S
C955        C956   1.430       .  A
C956       Br957   1.941       .  S
C961        C962   1.423       .  A
C961        C966   1.423       .  A
C961       Br968   1.923       .  S
C962        C963   1.446       .  A
C963        C964   1.464       .  A
C963       Br970   1.936       .  S
C964        C965   1.454       .  A
C964       Br969   1.927       .  S
C965        C966   1.426       .  A
C966       Br967   1.911       .  S
C971        C976   1.421       .  A
C971       Br978   1.936       .  S
C972        C973   1.462       .  A
C973        C974   1.471       .  A
C973       Br980   1.911       .  S
C974       Br979   1.939       .  S
C975        C976   1.443       .  A
C976       Br977   1.875       .  S
C981        C982   1.423       .  A
C981        C986   1.413       .  A
C981       Br988   1.911       .  S
C982        C983   1.443       .  A
C984        C985   1.458   1_545  A
C984       Br989   1.939       .  S
C986       Br987   1.863       .  S
C991        C992   1.446       .  A
C991        C996   1.438       .  A
C991       Br998   1.955       .  S
C992        C993   1.440       .  A
C993        C994   1.438       .  A
C993      Br1000   1.910       .  S
C994        C995   1.426       .  A
C994       Br999   1.905       .  S
C995        C996   1.447       .  A
C996       Br997   1.953       .  S
C1001      C1002   1.389       .  A
C1001      C1006   1.405       .  A
C1001     Br1008   1.947       .  S
C1002      C1003   1.397       .  A
C1003      C1004   1.427       .  A
C1003     Br1010   1.942       .  S
C1004      C1005   1.475       .  A
C1004     Br1009   1.948       .  S
C1005      C1006   1.454       .  A
C1006     Br1007   1.906       .  S
C1011      C1012   1.412       .  A
C1011      C1016   1.422       .  A
C1011     Br1018   1.939       .  S
C1012      C1013   1.398       .  A
C1013      C1014   1.398       .  A
C1013     Br1020   1.929       .  S
C1014      C1015   1.417       .  A
C1014     Br1019   1.895       .  S
C1015      C1016   1.448       .  A
C1016     Br1017   1.937       .  S
C1021      C1022   1.411   1_554  A
C1021      C1026   1.410       .  A
C1021     Br1028   1.929   1_554  S
C1022      C1023   1.415   1_556  A
C1023      C1024   1.408       .  A
C1023     Br1030   1.933   1_554  S
C1024      C1025   1.407       .  A
C1024     Br1029   1.931       .  S
C1025      C1026   1.410       .  A
C1026     Br1027   1.930       .  S
C1031      C1032   1.402       .  A
C1031      C1036   1.415       .  A
C1031     Br1038   1.938       .  S
C1033     Br1040   1.948   1_545  S
C1034      C1035   1.467       .  A
C1035      C1036   1.446       .  A
C1036     Br1037   1.936       .  S
C1041      C1042   1.402       .  A
C1041      C1046   1.398       .  A
C1041     Br1048   1.924       .  S
C1042      C1043   1.405       .  A
C1043      C1044   1.397       .  A
C1043     Br1050   1.923       .  S
C1044      C1045   1.402       .  A
C1044     Br1049   1.927       .  S
C1045      C1046   1.405       .  A
C1046     Br1047   1.926       .  S
C1051      C1056   1.405       .  A
C1051     Br1058   1.935       .  S
C1052      C1053   1.446       .  A
C1053      C1054   1.412       .  A
C1053     Br1060   1.940       .  S
C1054     Br1059   1.934       .  S
C1055      C1056   1.407       .  A
C1056     Br1057   1.930       .  S
C1061      C1062   1.408       .  A
C1061      C1066   1.400       .  A
C1061     Br1068   1.933       .  S
C1062      C1063   1.408       .  A
C1063      C1064   1.403       .  A
C1063     Br1070   1.930       .  S
C1064      C1065   1.406       .  A
C1064     Br1069   1.930       .  S
C1065      C1066   1.407       .  A
C1066     Br1067   1.932       .  S
C1071      C1072   1.415       .  A
C1071      C1076   1.410   1_556  A
C1071     Br1078   1.935       .  S
C1072      C1073   1.417       .  A
C1073      C1074   1.412   1_556  A
C1073     Br1080   1.933       .  S
C1074      C1075   1.409       .  A
C1074     Br1079   1.930       .  S
C1075      C1076   1.409       .  A
C1076     Br1077   1.928       .  S
C1081      C1082   1.440       .  A
C1081      C1086   1.433       .  A
C1081     Br1088   1.911       .  S
C1082      C1083   1.456       .  A
C1083      C1084   1.457       .  A
C1083     Br1090   1.925       .  S
C1084      C1085   1.433       .  A
C1084     Br1089   1.922       .  S
C1085      C1086   1.431       .  A
C1086     Br1087   1.925       .  S
C1091      C1092   1.396       .  A
C1091      C1096   1.407       .  A
C1091     Br1098   1.923       .  S
C1092      C1093   1.402       .  A
C1093      C1094   1.422       .  A
C1093     Br1100   1.943       .  S
C1094      C1095   1.459       .  A
C1094     Br1099   1.917       .  S
C1095      C1096   1.441       .  A
C1096     Br1097   1.933       .  S
C1101      C1106   1.419       .  A
C1101     Br1108   1.941       .  S
C1102      C1103   1.437       .  A
C1103      C1104   1.435       .  A
C1103     Br1110   1.910       .  S
C1104     Br1109   1.942       .  S
C1105      C1106   1.440       .  A
C1106     Br1107   1.912       .  S
C1111      C1112   1.464       .  A
C1111      C1116   1.442       .  A
C1111     Br1118   1.956       .  S
C1112      C1113   1.444       .  A
C1113      C1114   1.459       .  A
C1113     Br1120   1.932       .  S
C1114      C1115   1.459       .  A
C1114     Br1119   1.947       .  S
C1115      C1116   1.433       .  A
C1116     Br1117   1.921       .  S
C1121      C1122   1.396       .  A
C1121      C1126   1.406       .  A
C1122      C1123   1.405       .  A
C1123      C1124   1.428       .  A
C1123     Br1130   1.944       .  S
C1124      C1125   1.470       .  A
C1124     Br1129   1.954       .  S
C1125      C1126   1.442       .  A
C1126     Br1127   1.916       .  S
C1131      C1132   1.439       .  A
C1131      C1136   1.445       .  A
C1131     Br1138   1.944       .  S
C1132      C1133   1.430       .  A
C1133      C1134   1.430       .  A
C1133     Br1140   1.941       .  S
C1134      C1135   1.447       .  A
C1134     Br1139   1.933       .  S
C1135      C1136   1.444       .  A
C1136     Br1137   1.900       .  S
C1141      C1142   1.458       .  A
C1141      C1146   1.451       .  A
C1141     Br1148   1.932       .  S
C1142      C1143   1.441       .  A
C1143      C1144   1.463       .  A
C1143     Br1150   1.940       .  S
C1144      C1145   1.465       .  A
C1144     Br1149   1.935       .  S
C1145      C1146   1.445       .  A
C1146     Br1147   1.941       .  S
C1151      C1152   1.449       .  A
C1151      C1156   1.417       .  A
C1151     Br1158   1.914       .  S
C1152      C1153   1.448       .  A
C1153      C1154   1.420       .  A
C1153     Br1160   1.919       .  S
C1154      C1155   1.399       .  A
C1154     Br1159   1.941       .  S
C1155      C1156   1.397       .  A
C1156     Br1157   1.946       .  S
C1161      C1166   1.444       .  A
C1161     Br1168   1.940       .  S
C1162      C1163   1.405       .  A
C1163      C1164   1.433       .  A
C1163     Br1170   1.947       .  S
C1164     Br1169   1.932       .  S
C1165      C1166   1.454       .  A
C1166     Br1167   1.925       .  S
C1171      C1176   1.390       .  A
C1171     Br1178   1.887       .  S
C1172      C1173   1.440       .  A
C1173     Br1180   1.924       .  S
C1174      C1175   1.456       .  A
C1175      C1176   1.415       .  A
C1176     Br1177   1.892       .  S
C1181      C1182   1.449       .  A
C1181      C1186   1.419       .  A
C1181     Br1188   1.923       .  S
C1182      C1183   1.437       .  A
C1183      C1184   1.452       .  A
C1183     Br1190   1.870       .  S
C1184      C1185   1.438       .  A
C1184     Br1189   1.928       .  S
C1185      C1186   1.430       .  A
C1186     Br1187   1.917       .  S
C1191      C1192   1.427       .  A
C1192      C1193   1.451       .  A
C1193      C1194   1.423       .  A
C1193     Br1200   1.934   1_565  S
C1194      C1195   1.403       .  A
C1194     Br1199   1.939       .  S
C1196     Br1197   1.928       .  S
