geometry optimzed in LAMMPS
_audit_creation_date              2020-11-30 
_audit_creation_method            'lammps2cif' 
_symmetry_space_group_name_H-M    'P1' 
_symmetry_Int_Tables_number       1 
_symmetry_cell_setting            triclinic 
loop_ 
_symmetry_equiv_pos_as_xyz 
  x,y,z 
_cell_length_a                    32.79632984 
_cell_length_b                    33.731862599244685 
_cell_length_c                    47.89430160446652 
_cell_angle_alpha                 89.95979736480254 
_cell_angle_beta                  89.84907202390974 
_cell_angle_gamma                 120.3538045223397 
loop_ 
_atom_site_label 
_atom_site_type_symbol 
_atom_site_fract_x 
_atom_site_fract_y 
_atom_site_fract_z 
_atom_site_charge 
C1          C  0.33668347  0.66783867  0.09455657     0.46000
H2          H  0.33327923  0.67040458  0.07214489    -0.03000
C3          C  0.34035004  0.66657819  0.14854120     0.46100
H4          H  0.34160577  0.66644165  0.17171190    -0.03000
C5          C  0.35872607  0.63856565  0.10507104    -0.16700
C6          C  0.36620267  0.71696105  0.10749992    -0.16500
C7          C  0.28726737  0.64495463  0.10853228    -0.16800
C8          C  0.36364152  0.64128738  0.13434151    -0.16800
C9          C  0.36647918  0.71592679  0.13633287    -0.16400
C10         C  0.28900931  0.64268637  0.13713824    -0.16700
C11         C  0.15835594  0.40106351  0.39284116     0.02800
C12         C  0.16490210  0.40203347  0.36349341     0.02800
C13         C  0.19990131  0.39386223  0.35327718    -0.17700
C14         C  0.23500366  0.39661597  0.37108796     0.02800
C15         C  0.22768914  0.39389045  0.40047419     0.02800
C16         C  0.18569227  0.39030276  0.41029406    -0.17700
H17         H  0.17682981  0.38430607  0.43213740     0.04800
H18         H  0.20396736  0.39207474  0.33095753     0.04800
C19         C  0.15701756  0.76625993  0.35305242     0.02800
C20         C  0.14966143  0.75860426  0.38229172     0.02800
C21         C  0.17908654  0.79319298  0.40090122    -0.17700
C22         C  0.22241836  0.82946228  0.39192522     0.02800
C23         C  0.23065809  0.83670399  0.36278842     0.02800
C24         C  0.19478449  0.80846752  0.34414718    -0.17700
H25         H  0.19934712  0.81718069  0.32228174     0.04800
H26         H  0.17068799  0.78875571  0.42290289     0.04800
C27         C  0.78073794  0.62994362  0.14639395     0.02800
C28         C  0.77943339  0.63360132  0.11697542     0.02800
C29         C  0.81788441  0.63934377  0.10108782    -0.17700
C30         C  0.85418941  0.63525040  0.11344111     0.02800
C31         C  0.85643050  0.63368489  0.14292378     0.02800
C32         C  0.82209915  0.63624644  0.15899161    -0.17700
H33         H  0.82378565  0.63521005  0.18152523     0.04800
H34         H  0.81526690  0.63837891  0.07848673     0.04800
O35         O  0.06831592  0.49509689  0.46527999    -0.78000
C36         C  0.03965900  0.60351409  0.45251981     0.83100
O37         O  0.06927977  0.53737128  0.06009407    -0.79100
O38         O  0.93946377  0.55784061  0.02317486    -0.80500
O39         O  0.89793529  0.42743289  0.46355093    -0.80300
O40         O  0.00056605  0.42872102  0.46256391    -0.79000
Zn41       Zn  0.05812409  0.53876497  0.48822413     1.55700
O42         O  0.89522754  0.49162770  0.46484170    -0.80400
Cd43       Cd  0.95772932  0.44227841  0.48737386     1.59700
Cd44       Cd  0.99964914  0.50582304  0.04504381     1.59600
O45         O  0.93595010  0.39569580  0.02142529    -0.80400
O46         O  0.99368311  0.50667321  0.50184282    -1.90900
Cd47       Cd  0.95668791  0.53508991  0.48756312     1.59900
O48         O  0.96449789  0.43900212  0.05981049    -0.80300
O49         O  0.99720453  0.58730903  0.46045403    -0.79000
C50         C  0.10861641  0.55789063  0.04705350     0.83600
C51         C  0.04399831  0.45402760  0.45634461     0.83200
O52         O  0.06559020  0.58848755  0.46211536    -0.77900
C53         C  0.87816553  0.45032642  0.45661711     0.84000
O54         O  0.10998017  0.56131109  0.02048261    -0.78000
C55         C  0.94136103  0.40009377  0.04781728     0.84200
C56         C  0.94497881  0.55777746  0.04946709     0.84500
O57         O  0.96732153  0.54034090  0.06107740    -0.80400
O58         O  0.07131389  0.58403528  0.28124863    -0.78000
C59         C  0.05378761  0.44909180  0.29192435     0.83100
O60         O  0.07345330  0.53227969  0.18905313    -0.79100
O61         O  0.94302718  0.38664809  0.22848365    -0.80500
O62         O  0.90139960  0.47919807  0.28458290    -0.80300
O63         O  0.00280995  0.58230092  0.28363332    -0.79000
Zn64       Zn  0.06289860  0.53075532  0.25926425     1.55700
O65         O  0.90547606  0.41565874  0.28579877    -0.80400
Cd66       Cd  0.96072450  0.52413834  0.26059918     1.59700
Cd67       Cd  0.00306561  0.49819775  0.20447595     1.59600
O68         O  0.93951370  0.54702800  0.22715784    -0.80400
O69         O  0.99845501  0.49645902  0.24633851    -1.90900
Cd70       Cd  0.96517181  0.43200375  0.26133656     1.59900
O71         O  0.96937467  0.53204090  0.18920935    -0.80300
O72         O  0.01110051  0.42154620  0.28511361    -0.79000
C73         C  0.11263267  0.55466378  0.20208607     0.83600
C74         C  0.04662431  0.60141453  0.28909660     0.83200
O75         O  0.07597448  0.49066135  0.28357725    -0.77900
C76         C  0.88496268  0.43776670  0.29275830     0.84000
O77         O  0.11337009  0.55690429  0.22863304    -0.78000
C78         C  0.94618988  0.54861679  0.20088501     0.84200
C79         C  0.94579811  0.39170724  0.20206194     0.84500
O80         O  0.96735558  0.43101420  0.19020236    -0.80400
C81         C  0.84257731  0.22851466  0.10768361     0.02800
C82         C  0.84458435  0.22672508  0.13716361     0.02800
C83         C  0.81074996  0.18743589  0.15131880    -0.17700
C84         C  0.77349390  0.15139975  0.13686545     0.02800
C85         C  0.77379247  0.15177240  0.10727664     0.02800
C86         C  0.81058576  0.18901690  0.09312039    -0.17700
H87         H  0.81002018  0.18995566  0.07051897     0.04800
H88         H  0.80922770  0.18794800  0.17393984     0.04800
C89         C  0.39619088  0.15809105  0.13950079     0.02800
C90         C  0.39713564  0.16234673  0.11015477     0.02800
C91         C  0.40110625  0.20218709  0.09837216    -0.17700
C92         C  0.40832695  0.23905825  0.11517079     0.02800
C93         C  0.40381954  0.23333434  0.14462535     0.02800
C94         C  0.39391960  0.19106365  0.15608108    -0.17700
H95         H  0.38927923  0.18552161  0.17832441     0.04800
H96         H  0.40415399  0.20665075  0.07588086     0.04800
C97         C  0.61154262  0.83897148  0.38794103     0.02800
C98         C  0.61000243  0.83525747  0.35844723     0.02800
C99         C  0.61629882  0.80131909  0.34588116    -0.17700
C100        C  0.61401181  0.76542559  0.36174891     0.02800
C101        C  0.61216257  0.76717799  0.39122962     0.02800
C102        C  0.61556417  0.80620448  0.40383688    -0.17700
H103        H  0.61485602  0.80777316  0.42636029     0.04800
H104        H  0.61606376  0.79923941  0.32334058     0.04800
O105        O  0.50786937  0.91974908  0.28446421    -0.78000
C106        C  0.39651047  0.94892229  0.29741102     0.83100
O107        O  0.46202735  0.91987424  0.19174135    -0.79100
O108        O  0.43758213  0.04351382  0.22802893    -0.80500
O109        O  0.58171536  0.08773715  0.28288443    -0.80300
O110        O  0.57766121  0.98390735  0.28566495    -0.79000
Zn111      Zn  0.46313744  0.93051024  0.26181414     1.55700
O112        O  0.51494642  0.08946266  0.28033225    -0.80400
Cd113      Cd  0.56451658  0.02701983  0.26109536     1.59700
Cd114      Cd  0.49457573  0.98761242  0.20597530     1.59600
O115        O  0.60939832  0.04760131  0.22711671    -0.80400
O116        O  0.49716958  0.99274285  0.24762982    -1.90900
Cd117      Cd  0.46678963  0.02797724  0.26114794     1.59900
O118        O  0.56239573  0.02429824  0.18962483    -0.80300
O119        O  0.41394346  0.99049859  0.28977940    -0.79000
C120        C  0.43901495  0.88181838  0.20479445     0.83600
C121        C  0.55077796  0.94194930  0.29248471     0.83200
O122        O  0.41191549  0.92370790  0.28774156    -0.77900
C123        C  0.55807122  0.10762071  0.28775703     0.84000
O124        O  0.43496735  0.88058073  0.23135121    -0.78000
C125        C  0.60321051  0.04538990  0.20079386     0.84200
C126        C  0.43805156  0.03785137  0.20178620     0.84500
O127        O  0.45756008  0.01727086  0.19062052    -0.80400
O128        O  0.40986908  0.48630685  0.28949589    -0.78000
C129        C  0.54735703  0.60065702  0.29705751     0.83100
O130        O  0.46086670  0.53315759  0.19345995    -0.79100
O131        O  0.60940176  0.55543024  0.23378262    -0.80500
O132        O  0.51090028  0.42065364  0.28769234    -0.80300
O133        O  0.41044989  0.42082151  0.29195948    -0.79000
Zn134      Zn  0.46239296  0.52900222  0.26385078     1.55700
O135        O  0.57814532  0.48729441  0.28954291    -0.80400
Cd136      Cd  0.46577933  0.43538481  0.26571433     1.59700
Cd137      Cd  0.49655891  0.50122282  0.20928231     1.59600
O138        O  0.44279535  0.39133333  0.23298461    -0.80400
O139        O  0.49653172  0.49955273  0.25117893    -1.90900
Cd140      Cd  0.56239558  0.53033483  0.26636692     1.59900
O141        O  0.46563089  0.43446926  0.19420211    -0.80300
O142        O  0.57399973  0.58442748  0.29138161    -0.79000
C143        C  0.43873639  0.55043651  0.20562110     0.83600
C144        C  0.39358318  0.44583764  0.29923129     0.83200
O145        O  0.50593844  0.58348180  0.28702515    -0.77900
C146        C  0.55366813  0.44473479  0.29555402     0.84000
O147        O  0.43596044  0.55043605  0.23219520    -0.78000
C148        C  0.44668918  0.39563659  0.20659392     0.84200
C149        C  0.60561672  0.55560483  0.20735197     0.84500
O150        O  0.56586322  0.53728223  0.19490388    -0.80400
O151        O  0.40807242  0.92078563  0.46551691    -0.78000
C152        C  0.54745329  0.94296342  0.45141319     0.83100
O153        O  0.45934927  0.92857836  0.05632779    -0.79100
O154        O  0.61079979  0.05287425  0.01584654    -0.80500
O155        O  0.50715881  0.08510412  0.45826947    -0.80300
O156        O  0.40441518  0.98471007  0.46317236    -0.79000
Zn157      Zn  0.46529574  0.93339656  0.48678061     1.55700
O158        O  0.57561632  0.08668305  0.45698362    -0.80400
Cd159      Cd  0.46488083  0.02955787  0.48404692     1.59700
Cd160      Cd  0.49593843  0.99492348  0.03952807     1.59600
O161        O  0.44755581  0.05707432  0.01688165    -0.80400
O162        O  0.49765332  0.99688511  0.49784334    -1.90900
Cd163      Cd  0.56279700  0.02962232  0.48109944     1.59900
O164        O  0.46540300  0.03077998  0.05507660    -0.80300
O165        O  0.57459387  0.98549540  0.45670175    -0.79000
C166        C  0.44202572  0.88996070  0.04403907     0.83600
C167        C  0.38746383  0.94238005  0.45778020     0.83200
O168        O  0.50616447  0.92035311  0.46184055    -0.77900
C169        C  0.55007697  0.10390137  0.45037438     0.84000
O170        O  0.44358919  0.88776170  0.01747975    -0.78000
C171        C  0.44934835  0.05385884  0.04326188     0.84200
C172        C  0.60494990  0.04922907  0.04226175     0.84500
O173        O  0.56437066  0.02756780  0.05380417    -0.80400
O174        O  0.51676281  0.58103331  0.46355417    -0.78000
C175        C  0.39765038  0.44056065  0.46062948     0.83100
O176        O  0.46754361  0.53290797  0.05650511    -0.79100
O177        O  0.45954988  0.39306163  0.02266536    -0.80500
O178        O  0.58847543  0.48582247  0.46297505    -0.80300
O179        O  0.58750302  0.58743583  0.46204767    -0.79000
Zn180      Zn  0.47450455  0.52836880  0.48756216     1.55700
O181        O  0.52005662  0.42011573  0.46518899    -0.80400
Cd182      Cd  0.57526786  0.53127284  0.48668399     1.59700
Cd183      Cd  0.50726248  0.50472051  0.04200754     1.59600
O184        O  0.62276359  0.55836507  0.02075927    -0.80400
O185        O  0.50849004  0.50011324  0.50158351    -1.90900
Cd186      Cd  0.47614545  0.43410028  0.48977391     1.59900
O187        O  0.57433224  0.54328015  0.05731822    -0.80300
O188        O  0.41401111  0.41516554  0.46823192    -0.79000
C189        C  0.44614832  0.54965180  0.04326061     0.83600
C190        C  0.55956411  0.60180068  0.45532868     0.83200
O191        O  0.41940829  0.48338874  0.46576266    -0.77900
C192        C  0.56280869  0.44334568  0.45659150     0.84000
O193        O  0.44774957  0.55126865  0.01664061    -0.78000
C194        C  0.61547799  0.55997634  0.04685854     0.84200
C195        C  0.46185107  0.40024133  0.04888026     0.84500
O196        O  0.47898983  0.44019261  0.05933174    -0.80400
C197        C  0.65867431  0.32492788  0.34419201     0.46000
H198        H  0.66149114  0.32651483  0.32131511    -0.03000
C199        C  0.65632006  0.32141283  0.39824836     0.46100
H200        H  0.65466298  0.32078554  0.42132893    -0.03000
C201        C  0.62950862  0.34526520  0.35680627    -0.16700
C202        C  0.63509418  0.27497447  0.35562455    -0.16500
C203        C  0.70841938  0.35234946  0.35796500    -0.16800
C204        C  0.62793697  0.34288901  0.38580281    -0.16800
C205        C  0.63663855  0.27343062  0.38434576    -0.16400
C206        C  0.70726693  0.35025532  0.38685346    -0.16700
C207        C  0.54805840  0.37905348  0.42462644    -0.05200
C208        C  0.58154058  0.41933237  0.43837739     0.00700
C209        C  0.63024275  0.43346810  0.43498031    -0.07900
C210        C  0.64286506  0.40627815  0.41858517    -0.05300
C211        C  0.60926643  0.36647859  0.40452565     0.00700
C212        C  0.56062376  0.35229487  0.40797717    -0.07800
C213        C  0.52122610  0.30743358  0.39636131     0.62600
H214        H  0.51107508  0.36803268  0.42734305     0.13300
H215        H  0.67974514  0.41683424  0.41574026     0.13300
C216        C  0.66915950  0.47687041  0.44840861     0.62800
F217        F  0.47714702  0.30284080  0.40011710    -0.22300
F218        F  0.52099192  0.27149998  0.41019598    -0.19700
F219        F  0.52718345  0.30444542  0.36813508    -0.19400
F220        F  0.66246510  0.47484202  0.47701361    -0.19400
F221        F  0.66877507  0.51473850  0.43765091    -0.19700
F222        F  0.71349690  0.48277002  0.44335288    -0.22400
C223        C  0.58569200  0.22380365  0.42251763    -0.05200
C224        C  0.61802824  0.23002730  0.40135402     0.00700
C225        C  0.62919660  0.19456585  0.39708616    -0.07900
C226        C  0.60559227  0.15414987  0.41329154    -0.05300
C227        C  0.57138742  0.14717905  0.43339200     0.00700
C228        C  0.56072476  0.18266304  0.43778845    -0.07800
C229        C  0.52314708  0.17756658  0.45835824     0.62600
H230        H  0.57833365  0.25131102  0.42620195     0.13300
H231        H  0.61412011  0.12725790  0.41008917     0.13300
C232        C  0.66626344  0.19656667  0.37704663     0.62800
F233        F  0.52168907  0.21769074  0.46119270    -0.22300
F234        F  0.53253243  0.16618667  0.48421225    -0.19700
F235        F  0.47915407  0.14359089  0.44938293    -0.19400
F236        F  0.69174829  0.23785299  0.36322297    -0.19400
F237        F  0.64446931  0.16200838  0.35746815    -0.19700
F238        F  0.69808739  0.18920866  0.39180352    -0.22400
C239        C  0.56521511  0.37828734  0.30152649    -0.05200
C240        C  0.57521582  0.42150791  0.31105733     0.00700
C241        C  0.60400498  0.44022975  0.33493096    -0.07900
C242        C  0.62178248  0.41478675  0.34825509    -0.05300
C243        C  0.61078069  0.37053858  0.33946504     0.00700
C244        C  0.58239600  0.35238349  0.31491385    -0.07800
C245        C  0.56904531  0.30615156  0.30217578     0.62600
H246        H  0.54400794  0.36510860  0.28284045     0.13300
H247        H  0.64553174  0.43016081  0.36559793     0.13300
C248        C  0.61491498  0.48623475  0.34690375     0.62800
F249        F  0.53180965  0.29131780  0.28362590    -0.22300
F250        F  0.55490304  0.27333138  0.32265789    -0.19700
F251        F  0.60677924  0.30912306  0.28752138    -0.19400
F252        F  0.57334708  0.48654836  0.35123087    -0.19400
F253        F  0.64347986  0.52110726  0.32859816    -0.19700
F254        F  0.63814492  0.49511781  0.37224262    -0.22400
C255        C  0.63971339  0.23089857  0.31470688    -0.05200
C256        C  0.61249960  0.23292476  0.33687482     0.00700
C257        C  0.56598451  0.19437243  0.34080312    -0.07900
C258        C  0.55135519  0.15440890  0.32499321    -0.05300
C259        C  0.57930680  0.15158681  0.30390211     0.00700
C260        C  0.62398310  0.19100503  0.29809763    -0.07800
C261        C  0.65393139  0.19186198  0.27373886     0.62600
H262        H  0.67434768  0.26057409  0.31103652     0.13300
H263        H  0.51651818  0.12491432  0.32881133     0.13300
C264        C  0.52826579  0.19330433  0.35956991     0.62800
F265        F  0.69472853  0.23419914  0.27078943    -0.22300
F266        F  0.62812631  0.18286589  0.24947304    -0.19700
F267        F  0.66703502  0.15918678  0.27742759    -0.19400
F268        F  0.48849092  0.18219143  0.34390619    -0.19400
F269        F  0.54236315  0.23478984  0.37196136    -0.19700
F270        F  0.51596272  0.16011634  0.37996850    -0.22400
C271        C  0.55353169  0.68611292  0.35044968    -0.05200
C272        C  0.60026562  0.72195213  0.34697278     0.00700
C273        C  0.63091643  0.71653251  0.32859850    -0.07900
C274        C  0.61262567  0.67559877  0.31320320    -0.05300
C275        C  0.56505622  0.64070575  0.31569644     0.00700
C276        C  0.53548660  0.64497926  0.33561690    -0.07800
C277        C  0.48521687  0.60658248  0.34154511     0.62600
H278        H  0.53059239  0.69110722  0.36442730     0.13300
H279        H  0.63492211  0.67136790  0.29821271     0.13300
C280        C  0.68216921  0.75395081  0.32477061     0.62800
F281        F  0.46791797  0.61398931  0.36619499    -0.22300
F282        F  0.48382863  0.56504777  0.34411888    -0.19700
F283        F  0.45577851  0.60391697  0.32010963    -0.19400
F284        F  0.70747063  0.73832430  0.30984021    -0.19400
F285        F  0.70363977  0.76900423  0.35045485    -0.19700
F286        F  0.68454823  0.79057193  0.31038493    -0.22400
C287        C  0.62376788  0.91014398  0.34058073    -0.05200
C288        C  0.59559323  0.86214050  0.34061137     0.00700
C289        C  0.55301436  0.84072041  0.32501260    -0.07900
C290        C  0.54087502  0.86853560  0.30963917    -0.05300
C291        C  0.56873698  0.91679500  0.30948313     0.00700
C292        C  0.61121845  0.93817946  0.32537949    -0.07800
C293        C  0.64324072  0.98999106  0.32682470     0.62600
H294        H  0.65589710  0.92547480  0.35275133     0.13300
H295        H  0.50914568  0.85208098  0.29711495     0.13300
C296        C  0.51986632  0.78877208  0.32404735     0.62800
F297        F  0.68035299  0.00269052  0.34519261    -0.22300
F298        F  0.61775151  0.01002087  0.33590143    -0.19700
F299        F  0.66240070  0.00696999  0.30075800    -0.19400
F300        F  0.51427318  0.76946104  0.35021475    -0.19400
F301        F  0.53764413  0.76930974  0.30592591    -0.19700
F302        F  0.47531362  0.77738850  0.31473487    -0.22400
C303        C  0.62788035  0.70560582  0.40669860    -0.05200
C304        C  0.59984420  0.72612217  0.40879044     0.00700
C305        C  0.55832865  0.70484655  0.42551778    -0.07900
C306        C  0.54854925  0.66577900  0.44090405    -0.05300
C307        C  0.57601028  0.64464020  0.43871174     0.00700
C308        C  0.61593455  0.66427148  0.42065384    -0.07800
C309        C  0.64493172  0.64142157  0.41519274     0.62600
H310        H  0.65889769  0.72189036  0.39347387     0.13300
H311        H  0.51841245  0.65125579  0.45489146     0.13300
C312        C  0.52302935  0.72163066  0.42720448     0.62800
F313        F  0.67733195  0.66289896  0.39380974    -0.22300
F314        F  0.61548148  0.59611489  0.40748972    -0.19700
F315        F  0.66960288  0.64319309  0.43897193    -0.19400
F316        F  0.51662774  0.73598985  0.40143458    -0.19400
F317        F  0.53866093  0.75738957  0.44601171    -0.19700
F318        F  0.47906542  0.68699180  0.43609798    -0.22400
C319        C  0.55142376  0.85980833  0.39950482    -0.05200
C320        C  0.59799377  0.86933000  0.40272517     0.00700
C321        C  0.62905416  0.90522635  0.42070142    -0.07900
C322        C  0.61159093  0.92955708  0.43560404    -0.05300
C323        C  0.56435985  0.91877901  0.43313438     0.00700
C324        C  0.53413314  0.88442746  0.41395173    -0.07800
C325        C  0.48382403  0.87346119  0.40845483     0.62600
H326        H  0.52804851  0.83185189  0.38597674     0.13300
H327        H  0.63434335  0.95617287  0.45012071     0.13300
C328        C  0.68020423  0.91769404  0.42422316     0.62800
F329        F  0.46581633  0.84802757  0.38428020    -0.22300
F330        F  0.48255905  0.91360778  0.40527754    -0.19700
F331        F  0.45489750  0.84822982  0.43045594    -0.19400
F332        F  0.70567792  0.95750548  0.43962531    -0.19400
F333        F  0.70162234  0.92460143  0.39836221    -0.19700
F334        F  0.68243630  0.88282359  0.43795688    -0.22400
C335        C  0.38750680  0.28978026  0.08911038    -0.05200
C336        C  0.42297403  0.28337643  0.10083868     0.00700
C337        C  0.47121576  0.31654828  0.09593876    -0.07900
C338        C  0.48213478  0.35537210  0.07979783    -0.05300
C339        C  0.44674510  0.36110601  0.06779668     0.00700
C340        C  0.39871191  0.32871156  0.07282852    -0.07800
C341        C  0.35989962  0.33575492  0.06118443     0.62600
H342        H  0.35092957  0.26358476  0.09247729     0.13300
H343        H  0.51861788  0.38092163  0.07541969     0.13300
C344        C  0.51116546  0.31026683  0.10633955     0.62800
F345        F  0.31558657  0.30176360  0.06999004    -0.22300
F346        F  0.36100200  0.33529116  0.03233008    -0.19700
F347        F  0.36659575  0.37764740  0.07006636    -0.19400
F348        F  0.50731217  0.27107945  0.09483237    -0.19400
F349        F  0.50932665  0.30678647  0.13498070    -0.19700
F350        F  0.55512260  0.34680346  0.09912240    -0.22400
C351        C  0.38580962  0.29385020  0.15790202    -0.05200
C352        C  0.41169930  0.27177841  0.16336984     0.00700
C353        C  0.44652427  0.28922778  0.18487482    -0.07900
C354        C  0.45669034  0.33034986  0.19782553    -0.05300
C355        C  0.43330856  0.35386516  0.19068548     0.00700
C356        C  0.39649273  0.33521075  0.17101946    -0.07800
C357        C  0.36830262  0.35841115  0.16449655     0.62600
H358        H  0.35737135  0.27860763  0.14292532     0.13300
H359        H  0.48306507  0.34457297  0.21416458     0.13300
C360        C  0.47207408  0.26508818  0.19575529     0.62800
F361        F  0.33140555  0.33254976  0.14639212    -0.22300
F362        F  0.39743558  0.40070630  0.15223443    -0.19700
F363        F  0.34950736  0.36455914  0.18889550    -0.19400
F364        F  0.48644460  0.24784121  0.17434099    -0.19400
F365        F  0.44250410  0.22976555  0.21350267    -0.19700
F366        F  0.51221521  0.29473498  0.21067600    -0.22400
C367        C  0.45920520  0.09873807  0.16849955    -0.05200
C368        C  0.42294014  0.06278039  0.18350285     0.00700
C369        C  0.37698698  0.05659700  0.18336689    -0.07900
C370        C  0.36921800  0.08779505  0.16798300    -0.05300
C371        C  0.40621171  0.12486118  0.15353217     0.00700
C372        C  0.45248813  0.13119745  0.15453538    -0.07800
C373        C  0.49723392  0.17230947  0.14334505     0.62600
H374        H  0.49454577  0.10361077  0.16946781     0.13300
H375        H  0.33442390  0.08404826  0.16751469     0.13300
C376        C  0.33664803  0.01704264  0.19892337     0.62800
F377        F  0.52849013  0.19327449  0.16515463    -0.22300
F378        F  0.48994949  0.20488523  0.13086817    -0.19700
F379        F  0.51803937  0.15741588  0.12412569    -0.19400
F380        F  0.34614425  0.02103581  0.22717692    -0.19400
F381        F  0.33122748  0.97594349  0.18941306    -0.19700
F382        F  0.29436273  0.01615412  0.19509138    -0.22400
C383        C  0.45000236  0.15369652  0.07815502    -0.05200
C384        C  0.40627598  0.13231773  0.09187369     0.00700
C385        C  0.37542625  0.08431854  0.08875497    -0.07900
C386        C  0.39148715  0.05922770  0.07347084    -0.05300
C387        C  0.43597454  0.08108446  0.06049150     0.00700
C388        C  0.46579525  0.12914613  0.06277643    -0.07800
C389        C  0.51458630  0.15697801  0.04979972     0.62600
H390        H  0.47305458  0.19046058  0.07993550     0.13300
H391        H  0.36850025  0.02247264  0.07088437     0.13300
C392        C  0.32492532  0.05835867  0.09940449     0.62800
F393        F  0.51470241  0.18937720  0.03204294    -0.22300
F394        F  0.52858831  0.13081765  0.03499680    -0.19700
F395        F  0.54754281  0.17970312  0.07053728    -0.19400
F396        F  0.29490767  0.03687505  0.07716138    -0.19400
F397        F  0.31101068  0.08640473  0.11209010    -0.19700
F398        F  0.31993860  0.02516942  0.11830517    -0.22400
C399        C  0.70051863  0.14022865  0.15851481    -0.05200
C400        C  0.72977427  0.12200958  0.15296983     0.00700
C401        C  0.71808259  0.07859466  0.16383994    -0.07900
C402        C  0.67555893  0.05351852  0.17895878    -0.05300
C403        C  0.64501675  0.07082994  0.18291746     0.00700
C404        C  0.65726532  0.11461109  0.17237314    -0.07800
C405        C  0.62487691  0.13423167  0.17593158     0.62600
H406        H  0.71175854  0.17479453  0.15149705     0.13300
H407        H  0.66598458  0.02047024  0.18798694     0.13300
C408        C  0.75131963  0.06010763  0.16033017     0.62800
F409        F  0.64473299  0.17838892  0.16530433    -0.22300
F410        F  0.61546709  0.13557388  0.20390089    -0.19700
F411        F  0.58288746  0.10681502  0.16207325    -0.19400
F412        F  0.79468846  0.09049372  0.17192399    -0.19400
F413        F  0.75733552  0.05494980  0.13228747    -0.19700
F414        F  0.73417188  0.01789619  0.17328707    -0.22400
C415        C  0.68333459  0.06349607  0.05707068    -0.05200
C416        C  0.64671547  0.07318530  0.06013866     0.00700
C417        C  0.65236164  0.10873231  0.07818512    -0.07900
C418        C  0.69477145  0.13325617  0.09274180    -0.05300
C419        C  0.73055932  0.12220978  0.09103557     0.00700
C420        C  0.72574164  0.08782282  0.07208215    -0.07800
C421        C  0.76390535  0.07613758  0.06604707     0.62600
H422        H  0.67902925  0.03711614  0.04245081     0.13300
H423        H  0.70102414  0.16262052  0.10498352     0.13300
C424        C  0.61509433  0.12268859  0.08081804     0.62800
F425        F  0.74728107  0.03066594  0.07292124    -0.22300
F426        F  0.80520942  0.10292601  0.08060973    -0.19700
F427        F  0.77450398  0.08206517  0.03781873    -0.19400
F428        F  0.57393212  0.08694231  0.09196007    -0.19400
F429        F  0.60602902  0.13395743  0.05474368    -0.19700
F430        F  0.62952020  0.16040966  0.09803349    -0.22400
C431        C  0.85782819  0.30112755  0.15347160    -0.05200
C432        C  0.87256955  0.26879394  0.15383943     0.00700
C433        C  0.91159693  0.27648051  0.17039499    -0.07900
C434        C  0.93510663  0.31737925  0.18596504    -0.05300
C435        C  0.92111542  0.35037278  0.18469537     0.00700
C436        C  0.88184341  0.34220914  0.16833547    -0.07800
C437        C  0.86507354  0.37655783  0.16682630     0.62600
H438        H  0.82720378  0.29390404  0.14123417     0.13300
H439        H  0.96484232  0.32418514  0.19904444     0.13300
C440        C  0.92866488  0.24220585  0.17118991     0.62800
F441        F  0.82411254  0.36033364  0.15133309    -0.22300
F442        F  0.89967615  0.41627843  0.15426422    -0.19700
F443        F  0.85612595  0.38628680  0.19343913    -0.19400
F444        F  0.96807782  0.25723682  0.18796630    -0.19400
F445        F  0.94051600  0.23575580  0.14454289    -0.19700
F446        F  0.89356348  0.20056226  0.18160949    -0.22400
C447        C  0.78486286  0.35881081  0.34390800    -0.05200
C448        C  0.75347229  0.37531986  0.34103122     0.00700
C449        C  0.76602687  0.41294854  0.32266720    -0.07900
C450        C  0.80898242  0.43184388  0.30762330    -0.05300
C451        C  0.84026634  0.41497315  0.31008608     0.00700
C452        C  0.82802826  0.37785732  0.32898371    -0.07800
C453        C  0.86052307  0.35883820  0.33423320     0.62600
H454        H  0.77491112  0.33023645  0.35799954     0.13300
H455        H  0.81814301  0.45993470  0.29326240     0.13300
C456        C  0.73515223  0.43416635  0.31911231     0.62800
F457        F  0.84449436  0.32726624  0.35590728    -0.22300
F458        F  0.90495244  0.39426471  0.34131615    -0.19700
F459        F  0.86337993  0.33691942  0.31056019    -0.19400
F460        F  0.72361458  0.44388109  0.34494622    -0.19400
F461        F  0.69464719  0.40432644  0.30481287    -0.19700
F462        F  0.75773925  0.47483238  0.30408009    -0.22400
C463        C  0.91703396  0.29913195  0.09395578    -0.05200
C464        C  0.86754886  0.27283806  0.09224134     0.00700
C465        C  0.84250372  0.29074996  0.07766348    -0.07900
C466        C  0.86850596  0.33250926  0.06338829    -0.05300
C467        C  0.91773564  0.35822868  0.06485921     0.00700
C468        C  0.94264430  0.34248774  0.08111173    -0.07800
C469        C  0.99581125  0.37113688  0.08461109     0.62600
H470        H  0.93538650  0.28560054  0.10573997     0.13300
H471        H  0.85039377  0.34571384  0.05094598     0.13300
C472        C  0.78875265  0.26719391  0.07716620     0.62800
F473        F  0.01316077  0.34874299  0.10060651    -0.22300
F474        F  0.00736193  0.41193987  0.09780261    -0.19700
F475        F  0.01767781  0.38061542  0.05875821    -0.19400
F476        F  0.76985642  0.25015185  0.10324508    -0.19400
F477        F  0.77061508  0.23176288  0.05803406    -0.19700
F478        F  0.77397093  0.29755289  0.06953487    -0.22400
C479        C  0.80439450  0.37968000  0.44257546    -0.05200
C480        C  0.83387834  0.42717324  0.43912368     0.00700
C481        C  0.82127575  0.44959434  0.41854292    -0.07900
C482        C  0.77974976  0.42331577  0.40244579    -0.05300
C483        C  0.75045708  0.37541277  0.40567491     0.00700
C484        C  0.76353414  0.35333645  0.42635084    -0.07800
C485        C  0.73730529  0.30177619  0.43041016     0.62600
H486        H  0.81400855  0.36294234  0.45837221     0.13300
H487        H  0.76972944  0.44020913  0.38704988     0.13300
C488        C  0.85190797  0.50072715  0.41286832     0.62800
F489        F  0.73348953  0.28145125  0.40505451    -0.22300
F490        F  0.69323452  0.28671042  0.44177470    -0.19700
F491        F  0.76080098  0.28751432  0.44806954    -0.19400
F492        F  0.89774573  0.51145660  0.40713318    -0.19400
F493        F  0.85161574  0.52525979  0.43590414    -0.19700
F494        F  0.83585494  0.51449539  0.39022809    -0.22400
C495        C  0.93801190  0.61599603  0.19144826    -0.05200
C496        C  0.92655653  0.57134213  0.18390041     0.00700
C497        C  0.89343328  0.54820057  0.16249742    -0.07900
C498        C  0.87121921  0.56995674  0.15026011    -0.05300
C499        C  0.88393757  0.61537942  0.15680406     0.00700
C500        C  0.91809707  0.63905732  0.17782240    -0.07800
C501        C  0.93474641  0.68793214  0.18699376     0.62600
H502        H  0.96317441  0.63323939  0.20813576     0.13300
H503        H  0.84284404  0.55111666  0.13563640     0.13300
C504        C  0.88063115  0.50041236  0.15312315     0.62800
F505        F  0.98350421  0.71356321  0.18511437    -0.22300
F506        F  0.92161744  0.68754429  0.21450491    -0.19700
F507        F  0.91664610  0.70953686  0.17104234    -0.19400
F508        F  0.86493744  0.47086071  0.17575100    -0.19400
F509        F  0.92004021  0.50193101  0.14152459    -0.19700
F510        F  0.84531413  0.48308125  0.13317654    -0.22400
C511        C  0.85231286  0.57662312  0.08255087    -0.05200
C512        C  0.88001838  0.61960735  0.09534772     0.00700
C513        C  0.92992919  0.64226407  0.09331607    -0.07900
C514        C  0.95043195  0.61989263  0.07939583    -0.05300
C515        C  0.92240810  0.57700099  0.06675206     0.00700
C516        C  0.87270238  0.55463219  0.06847831    -0.07800
C517        C  0.84149081  0.50701478  0.05623882     0.62600
H518        H  0.81423741  0.55942108  0.08475786     0.13300
H519        H  0.98855830  0.63677762  0.07746925     0.13300
C520        C  0.96276312  0.69007070  0.10453877     0.62800
F521        F  0.79429162  0.48953920  0.06276518    -0.22300
F522        F  0.85495654  0.47711850  0.06673067    -0.19700
F523        F  0.84576924  0.50870096  0.02748065    -0.19400
F524        F  0.98863465  0.68736037  0.12642809    -0.19400
F525        F  0.93903416  0.71179257  0.11368032    -0.19700
F526        F  0.99361975  0.71696152  0.08364168    -0.22400
C527        C  0.71239320  0.63553769  0.16359092    -0.05200
C528        C  0.73700166  0.61146192  0.16349828     0.00700
C529        C  0.71721555  0.56817405  0.17736333    -0.07900
C530        C  0.67383702  0.55140220  0.19118722    -0.05300
C531        C  0.64930314  0.57527265  0.19090283     0.00700
C532        C  0.66825567  0.61776509  0.17684830    -0.07800
C533        C  0.64209932  0.64413129  0.17619823     0.62600
H534        H  0.72786819  0.66821262  0.15292779     0.13300
H535        H  0.65850147  0.51918773  0.20253647     0.13300
C536        C  0.74057809  0.53886863  0.17761931     0.62800
F537        F  0.66727115  0.68535254  0.16193262    -0.22300
F538        F  0.63441909  0.65357348  0.20316676    -0.19700
F539        F  0.59909163  0.61811155  0.16302316    -0.19400
F540        F  0.77872881  0.55761273  0.19552546    -0.19400
F541        F  0.75548330  0.53568526  0.15113760    -0.19700
F542        F  0.70970097  0.49455553  0.18673869    -0.22400
C543        C  0.70215426  0.57047640  0.10202005    -0.05200
C544        C  0.73465232  0.61778468  0.10163468     0.00700
C545        C  0.72685099  0.64700087  0.08398656    -0.07900
C546        C  0.68726098  0.62707652  0.06620096    -0.05300
C547        C  0.65566560  0.57948461  0.06618122     0.00700
C548        C  0.66232752  0.55073069  0.08480411    -0.07800
C549        C  0.62847248  0.49909390  0.08565668     0.62600
H550        H  0.70918860  0.54871756  0.11528608     0.13300
H551        H  0.68080491  0.64837369  0.05205720     0.13300
C552        C  0.76006985  0.69869260  0.08402896     0.62800
F553        F  0.64301737  0.47733617  0.10427837    -0.22300
F554        F  0.62561109  0.48066609  0.05944762    -0.19700
F555        F  0.58407056  0.48985369  0.09388636    -0.19400
F556        F  0.80404563  0.70928819  0.07412269    -0.19400
F557        F  0.76479862  0.71544767  0.11086921    -0.19700
F558        F  0.74339565  0.72098965  0.06739840    -0.22400
C559        C  0.35719173  0.89489399  0.33581956    -0.05200
C560        C  0.35769186  0.92821496  0.31817145     0.00700
C561        C  0.31902716  0.93599300  0.31869630    -0.07900
C562        C  0.27945148  0.90696355  0.33523778    -0.05300
C563        C  0.27708321  0.87029826  0.35047831     0.00700
C564        C  0.31698694  0.86429899  0.35096695    -0.07800
C565        C  0.31925966  0.82523939  0.36515699     0.62600
H566        H  0.38761608  0.89024751  0.33607074     0.13300
H567        H  0.24879511  0.91113330  0.33537507     0.13300
C568        C  0.31807955  0.97270024  0.30088549     0.62800
F569        F  0.35035661  0.84241494  0.38733163    -0.22300
F570        F  0.33549041  0.80510384  0.34637713    -0.19700
F571        F  0.27625972  0.79122153  0.37474557    -0.19400
F572        F  0.32271732  0.96478314  0.27307062    -0.19400
F573        F  0.35464494  0.01555595  0.30851357    -0.19700
F574        F  0.27619863  0.97291870  0.30398272    -0.22400
C575        C  0.07916555  0.70328332  0.33701546    -0.05200
C576        C  0.12828946  0.72938718  0.33235464     0.00700
C577        C  0.14858560  0.71566115  0.31063064    -0.07900
C578        C  0.11896616  0.67495323  0.29631402    -0.05300
C579        C  0.07139354  0.64622508  0.30350417     0.00700
C580        C  0.05061832  0.66063641  0.32405278    -0.07800
C581        C  0.99968332  0.63050413  0.33350890     0.62600
H582        H  0.06365854  0.71547931  0.35225448     0.13300
H583        H  0.13328293  0.66457185  0.27929066     0.13300
C584        C  0.20043452  0.74217954  0.30146188     0.62800
F585        F  0.98916788  0.64869386  0.35647427    -0.22300
F586        F  0.99167648  0.58749113  0.34096480    -0.19700
F587        F  0.96943084  0.62623584  0.31216632    -0.18800
F588        F  0.21234234  0.71529565  0.28546017    -0.19400
F589        F  0.23064232  0.75692241  0.32395342    -0.19700
F590        F  0.20853114  0.77933621  0.28519840    -0.22400
C591        C  0.28286099  0.90573769  0.40904599    -0.05200
C592        C  0.25941969  0.85786274  0.41269093     0.00700
C593        C  0.27503246  0.83891095  0.43393783    -0.07900
C594        C  0.31585137  0.86892450  0.44870705    -0.05300
C595        C  0.34202270  0.91611529  0.44295773     0.00700
C596        C  0.32479847  0.93538939  0.42320593    -0.07800
C597        C  0.35088379  0.98630109  0.41608015     0.62600
H598        H  0.26883657  0.91959526  0.39394897     0.13300
H599        H  0.32796424  0.85539529  0.46517568     0.13300
C600        C  0.24954136  0.78832612  0.44268044     0.62800
F601        F  0.32974423  0.99615861  0.39427195    -0.22300
F602        F  0.39680462  0.00030921  0.40812627    -0.19700
F603        F  0.35116388  0.01128662  0.43902989    -0.19400
F604        F  0.27896353  0.77774406  0.45758708    -0.19400
F605        F  0.23370635  0.75913934  0.42010563    -0.19700
F606        F  0.21176529  0.77918215  0.45978964    -0.22400
C607        C  0.09284087  0.63854543  0.41277984    -0.05200
C608        C  0.05991613  0.63968114  0.43091237     0.00700
C609        C  0.05048301  0.67625767  0.42898238    -0.07900
C610        C  0.07857289  0.71294043  0.41086646    -0.05300
C611        C  0.11537821  0.71410519  0.39515769     0.00700
C612        C  0.12213989  0.67571414  0.39565024    -0.07800
C613        C  0.16040788  0.67202818  0.38000742     0.62600
H614        H  0.09793779  0.60916949  0.41333903     0.13300
H615        H  0.07377624  0.74241425  0.40983621     0.13300
C616        C  0.01279153  0.67792752  0.44659708     0.62800
F617        F  0.18208919  0.65590881  0.39776042    -0.22300
F618        F  0.19522407  0.71323459  0.36952451    -0.19700
F619        F  0.14008528  0.64133739  0.35822798    -0.19400
F620        F  0.02200889  0.67651334  0.47463335    -0.19400
F621        F  0.96883842  0.64101331  0.44013588    -0.19700
F622        F  0.01121026  0.71762949  0.44184979    -0.22400
C623        C  0.35720015  0.46241099  0.33866239    -0.05200
C624        C  0.35560129  0.42927194  0.32042845     0.00700
C625        C  0.31734746  0.38338883  0.32215194    -0.07900
C626        C  0.28022600  0.37356650  0.34086506    -0.05300
C627        C  0.28022007  0.40786525  0.35748291     0.00700
C628        C  0.31986433  0.45318854  0.35663577    -0.07800
C629        C  0.32490531  0.49424879  0.37263176     0.62600
H630        H  0.38735708  0.49708465  0.33788540     0.13300
H631        H  0.24957577  0.33930399  0.34180023     0.13300
C632        C  0.31435899  0.34547036  0.30364604     0.62800
F633        F  0.33480195  0.52960501  0.35414946    -0.22300
F634        F  0.28512437  0.48513909  0.38724897    -0.19700
F635        F  0.36195811  0.50909931  0.39123251    -0.19400
F636        F  0.35102361  0.33787280  0.30981109    -0.19400
F637        F  0.31702579  0.35785982  0.27586897    -0.19700
F638        F  0.27241553  0.30442321  0.30754240    -0.22400
C639        C  0.28898599  0.37508683  0.41445388    -0.05200
C640        C  0.26515826  0.39910998  0.42049375     0.00700
C641        C  0.28175672  0.43125277  0.44307988    -0.07900
C642        C  0.32394869  0.44095438  0.45608499    -0.05300
C643        C  0.35052013  0.42110829  0.44763592     0.00700
C644        C  0.33218164  0.38626751  0.42714912    -0.07800
C645        C  0.35881998  0.36267340  0.41772174     0.62600
H646        H  0.27447515  0.34875790  0.39855441     0.13300
H647        H  0.33724823  0.46511709  0.47324084     0.13300
C648        C  0.25653007  0.45549661  0.45471777     0.62800
F649        F  0.33610649  0.33235371  0.39600726    -0.22300
F650        F  0.36256644  0.33810208  0.43968742    -0.19700
F651        F  0.40351746  0.39514996  0.40858119    -0.19400
F652        F  0.21784564  0.42482377  0.47037505    -0.19400
F653        F  0.24246863  0.47404432  0.43380967    -0.19700
F654        F  0.28540291  0.49148541  0.47225482    -0.22400
C655        C  0.08787570  0.39087359  0.34769978    -0.05200
C656        C  0.13707091  0.41299525  0.34354980     0.00700
C657        C  0.15775924  0.44499555  0.32099820    -0.07900
C658        C  0.12792807  0.45241817  0.30373234    -0.05300
C659        C  0.07968150  0.43308476  0.30934668     0.00700
C660        C  0.05906652  0.40206045  0.33192608    -0.07800
C661        C  0.00772468  0.38249111  0.34029400     0.62600
H662        H  0.07205549  0.36509430  0.36392080     0.13300
H663        H  0.14287993  0.47510048  0.28585983     0.13300
C664        C  0.21025453  0.47227589  0.31358776     0.62800
F665        F  0.99743759  0.35934242  0.36555656    -0.22300
F666        F  0.97853331  0.35200690  0.32019932    -0.19700
F667        F  0.99817545  0.41780774  0.34315132    -0.19400
F668        F  0.21994005  0.44887726  0.29339506    -0.19400
F669        F  0.23920145  0.48040427  0.33617814    -0.19700
F670        F  0.22216736  0.51500984  0.30294256    -0.22400
C671        C  0.10335234  0.46943777  0.42045119    -0.05200
C672        C  0.06774161  0.43684040  0.43779394     0.00700
C673        C  0.05928487  0.39124098  0.43844027    -0.07900
C674        C  0.08887467  0.38091777  0.42253862    -0.05300
C675        C  0.12653998  0.41454420  0.40659140     0.00700
C676        C  0.13419485  0.45995142  0.40571800    -0.07800
C677        C  0.17479876  0.50063320  0.39097376     0.62600
H678        H  0.10884759  0.50395775  0.41951329     0.13300
H679        H  0.08350521  0.34648875  0.42280145     0.13300
C680        C  0.02040987  0.35396023  0.45623333     0.62800
F681        F  0.15760193  0.51250934  0.36806592    -0.22300
F682        F  0.20959945  0.49219586  0.38239282    -0.19700
F683        F  0.19568720  0.53781786  0.40891778    -0.19400
F684        F  0.97684878  0.34515675  0.44670679    -0.19400
F685        F  0.02596013  0.36784500  0.48382002    -0.19700
F686        F  0.02100134  0.31323389  0.45516379    -0.22400
C687        C  0.17401008  0.62483321  0.07156749    -0.05200
C688        C  0.15381013  0.57896749  0.06308957     0.00700
C689        C  0.17783460  0.55493203  0.06911988    -0.07900
C690        C  0.22190842  0.57808549  0.08298703    -0.05300
C691        C  0.24179135  0.62376611  0.09209115     0.00700
C692        C  0.21766670  0.64774658  0.08582906    -0.07800
C693        C  0.23967111  0.69840693  0.09195357     0.62600
H694        H  0.15569685  0.64299247  0.06626842     0.13300
H695        H  0.24123645  0.56051605  0.08682405     0.13300
C696        C  0.15632079  0.50473628  0.06132893     0.62800
F697        F  0.20877418  0.71419155  0.08684683    -0.22300
F698        F  0.27855870  0.72220445  0.07483832    -0.19700
F699        F  0.25325553  0.70732716  0.11953586    -0.19400
F700        F  0.14929307  0.49955584  0.03280335    -0.19400
F701        F  0.11335569  0.47923859  0.07484136    -0.19700
F702        F  0.18503932  0.48741103  0.06888190    -0.22400
C703        C  0.23170056  0.64570843  0.17048479    -0.05200
C704        C  0.24544771  0.61854459  0.15545236     0.00700
C705        C  0.21634033  0.56977588  0.15756911    -0.07900
C706        C  0.17286393  0.55067815  0.17212872    -0.05300
C707        C  0.15847035  0.57794363  0.18625115     0.00700
C708        C  0.18899285  0.62634814  0.18600873    -0.07800
C709        C  0.17595909  0.65750349  0.20164935     0.62600
H710        H  0.25465037  0.68253016  0.16984238     0.13300
H711        H  0.15043734  0.51363294  0.17325911     0.13300
C712        C  0.22965335  0.53564409  0.14658676     0.62800
F713        F  0.20862062  0.70349988  0.19727007    -0.22300
F714        F  0.17402584  0.64889243  0.22998788    -0.19700
F715        F  0.13232709  0.64948214  0.19278507    -0.19400
F716        F  0.23206441  0.51060973  0.16875874    -0.19400
F717        F  0.27256396  0.55596781  0.13296442    -0.19700
F718        F  0.19518739  0.50556560  0.12842519    -0.22400
C719        C  0.37369582  0.57191319  0.09817727    -0.05200
C720        C  0.37089732  0.60867127  0.08607533     0.00700
C721        C  0.38087173  0.61499473  0.05663957    -0.07900
C722        C  0.40878359  0.59832888  0.04468779    -0.05300
C723        C  0.41879213  0.56769859  0.05871759     0.00700
C724        C  0.39806266  0.55190468  0.08552825    -0.07800
C725        C  0.40118878  0.51415402  0.10101522     0.62600
H726        H  0.35641866  0.55841891  0.11790430     0.13300
H727        H  0.42068640  0.60735519  0.02328092     0.13300
C728        C  0.35358637  0.62711202  0.03593770     0.62800
F729        F  0.37376474  0.50041772  0.12501078    -0.22300
F730        F  0.44741746  0.52979253  0.10885241    -0.19700
F731        F  0.38549381  0.47603740  0.08403497    -0.19400
F732        F  0.37338976  0.67394565  0.03323788    -0.19400
F733        F  0.30678363  0.60688395  0.04402918    -0.19700
F734        F  0.35348761  0.61029595  0.00951838    -0.22400
C735        C  0.35799177  0.59198234  0.17514848    -0.05200
C736        C  0.38567116  0.62015241  0.15281059     0.00700
C737        C  0.43195196  0.62634626  0.14934478    -0.07900
C738        C  0.44601798  0.60107637  0.16611181    -0.05300
C739        C  0.41837844  0.57321568  0.18823149     0.00700
C740        C  0.37370614  0.56914359  0.19320849    -0.07800
C741        C  0.34218613  0.54012025  0.21709119     0.62600
H742        H  0.32342789  0.58786660  0.17845186     0.13300
H743        H  0.48067808  0.60516794  0.16273079     0.13300
C744        C  0.46962170  0.66042041  0.12977066     0.62800
F745        F  0.29819487  0.53640455  0.21629007    -0.22300
F746        F  0.36286758  0.55993460  0.24229667    -0.19700
F747        F  0.33558564  0.49629252  0.21570376    -0.19400
F748        F  0.45601945  0.68768566  0.11661741    -0.19400
F749        F  0.48054366  0.63753733  0.10988684    -0.19700
F750        F  0.51007142  0.68882725  0.14479250    -0.22400
C751        C  0.36805194  0.79026531  0.09471838    -0.05200
C752        C  0.38696473  0.76130765  0.09039971     0.00700
C753        C  0.42498508  0.77658545  0.07062291    -0.07900
C754        C  0.44120907  0.81852930  0.05639961    -0.05300
C755        C  0.42199059  0.84665049  0.06077826     0.00700
C756        C  0.38473412  0.83248603  0.08037842    -0.07800
C757        C  0.36197240  0.86130661  0.08570148     0.62600
H758        H  0.33914368  0.77918286  0.10927065     0.13300
H759        H  0.47027992  0.83003656  0.04168157     0.13300
C760        C  0.45252370  0.75290803  0.06402638     0.62800
F761        F  0.32295618  0.83910708  0.10310560    -0.22300
F762        F  0.34731715  0.87054982  0.06071759    -0.19700
F763        F  0.39424166  0.90219659  0.09821026    -0.19400
F764        F  0.45555951  0.74929429  0.03539785    -0.19400
F765        F  0.43218110  0.70982901  0.07503884    -0.19700
F766        F  0.49787969  0.77870627  0.07439138    -0.22400
C767        C  0.35518653  0.77359371  0.16340558    -0.05200
C768        C  0.38581442  0.75805471  0.15481405     0.00700
C769        C  0.43329720  0.78237979  0.16435855    -0.07900
C770        C  0.44884477  0.82205175  0.18092496    -0.05300
C771        C  0.41862065  0.83816427  0.18863232     0.00700
C772        C  0.37095474  0.81365625  0.17980365    -0.07800
C773        C  0.33727577  0.83030718  0.18747709     0.62600
H774        H  0.31885012  0.75457564  0.15667333     0.13300
H775        H  0.48517583  0.84125815  0.18789467     0.13300
C776        C  0.46756267  0.76656489  0.15724401     0.62800
F777        F  0.29321988  0.80345636  0.17554765    -0.22300
F778        F  0.35527355  0.87500229  0.17827172    -0.19700
F779        F  0.33175687  0.82890733  0.21616070    -0.19400
F780        F  0.47404018  0.76878315  0.12873781    -0.19400
F781        F  0.44959326  0.72209354  0.16659301    -0.19700
F782        F  0.51127743  0.79352409  0.16955962    -0.22400
C783        C  0.33670230  0.66933941  0.59417623     0.46000
H784        H  0.33427920  0.67266311  0.57171180    -0.03000
C785        C  0.33891043  0.66645630  0.64818687     0.46100
H786        H  0.33947740  0.66564603  0.67136193    -0.03000
C787        C  0.35754743  0.63897818  0.60471822    -0.16700
C788        C  0.36665674  0.71792557  0.60772840    -0.16500
C789        C  0.28690080  0.64705117  0.60766748    -0.16800
C790        C  0.36201630  0.64111362  0.63399266    -0.16800
C791        C  0.36606920  0.71599487  0.63653326    -0.16400
C792        C  0.28799668  0.64370964  0.63624310    -0.16700
C793        C  0.15867636  0.40017677  0.89210252     0.02800
C794        C  0.16575847  0.40108509  0.86282328     0.02800
C795        C  0.20119461  0.39318445  0.85320044    -0.17700
C796        C  0.23596080  0.39606853  0.87134430     0.02800
C797        C  0.22783033  0.39261575  0.90066274     0.02800
C798        C  0.18571498  0.38947843  0.90996957    -0.17700
H799        H  0.17593473  0.38316520  0.93166321     0.04800
H800        H  0.20508535  0.38997847  0.83109486     0.04800
C801        C  0.15732280  0.76569831  0.85513642     0.02800
C802        C  0.14970657  0.76015796  0.88448578     0.02800
C803        C  0.17803544  0.79681086  0.90223322    -0.17700
C804        C  0.22153452  0.83265717  0.89295350     0.02800
C805        C  0.23013109  0.83772262  0.86373777     0.02800
C806        C  0.19452201  0.80775048  0.84546253    -0.17700
H807        H  0.19909841  0.81494516  0.82342252     0.04800
H808        H  0.16890499  0.79421724  0.92404053     0.04800
C809        C  0.77983106  0.62946284  0.64510307     0.02800
C810        C  0.78110674  0.63667571  0.61591787     0.02800
C811        C  0.82144329  0.64555792  0.60088786    -0.17700
C812        C  0.85690208  0.64022139  0.61344361     0.02800
C813        C  0.85676603  0.63524348  0.64284058     0.02800
C814        C  0.81984944  0.63375708  0.65854135    -0.17700
H815        H  0.81823291  0.62731318  0.68082320     0.04800
H816        H  0.82060847  0.64684128  0.57827073     0.04800
O817        O  0.06963258  0.49425537  0.96602678    -0.78000
C818        C  0.04200779  0.60441838  0.95592857     0.83100
O819        O  0.06923203  0.54237159  0.55853977    -0.79100
O820        O  0.93935295  0.56143434  0.52097462    -0.80500
O821        O  0.90019040  0.42705938  0.96360086    -0.80300
O822        O  0.00239571  0.42745336  0.96354793    -0.79000
Zn823      Zn  0.05912213  0.53693061  0.98979862     1.55700
O824        O  0.89725138  0.49110040  0.96566159    -0.80400
Cd825      Cd  0.95877642  0.44047520  0.98813054     1.59700
Cd826      Cd  0.99920633  0.50905447  0.54379757     1.59600
O827        O  0.93709378  0.39852720  0.52098991    -0.80400
O828        O  0.99459187  0.50452894  0.00311327    -1.90900
Cd829      Cd  0.95798106  0.53361981  0.98928475     1.59900
O830        O  0.96566662  0.44225103  0.55921623    -0.80300
O831        O  0.99933989  0.58786448  0.96352947    -0.79000
C832        C  0.10850355  0.56263129  0.54539342     0.83600
C833        C  0.04568590  0.45316205  0.95707522     0.83200
O834        O  0.06737268  0.58841915  0.96504821    -0.77900
C835        C  0.88056748  0.45015613  0.95682326     0.84000
O836        O  0.10960799  0.56497280  0.51875764    -0.78000
C837        C  0.94303407  0.40314188  0.54733577     0.84200
C838        C  0.94459889  0.56155790  0.54731066     0.84500
O839        O  0.96624960  0.54356946  0.55917185    -0.80400
O840        O  0.07318822  0.58322565  0.78172607    -0.78000
C841        C  0.05477552  0.44785084  0.79059222     0.83100
O842        O  0.07339782  0.53199749  0.68835682    -0.79100
O843        O  0.94356643  0.38784418  0.72672350    -0.80500
O844        O  0.90375609  0.48085458  0.78366061    -0.80300
O845        O  0.00525558  0.58264628  0.78393992    -0.79000
Zn846      Zn  0.06412849  0.53045663  0.75874130     1.55700
O847        O  0.90744864  0.41705819  0.78447726    -0.80400
Cd848      Cd  0.96304129  0.52591444  0.75995646     1.59700
Cd849      Cd  0.00346299  0.49950803  0.70370495     1.59600
O850        O  0.94255795  0.55070552  0.72695244    -0.80400
O851        O  0.99981812  0.49730671  0.74556090    -1.90900
Cd852      Cd  0.96659886  0.43258268  0.76000291     1.59900
O853        O  0.97175018  0.53544538  0.68885809    -0.80300
O854        O  0.01196292  0.42075081  0.78375433    -0.79000
C855        C  0.11261335  0.55412129  0.70133130     0.83600
C856        C  0.04877258  0.60073151  0.78992185     0.83200
O857        O  0.07721750  0.48950241  0.78241272    -0.77900
C858        C  0.88723726  0.43933386  0.79164831     0.84000
O859        O  0.11377878  0.55656085  0.72787139    -0.78000
C860        C  0.94919467  0.55256652  0.70066201     0.84200
C861        C  0.94506478  0.39330138  0.70033462     0.84500
O862        O  0.96607319  0.43281616  0.68873499    -0.80400
C863        C  0.84434348  0.22996418  0.60590844     0.02800
C864        C  0.84407517  0.22825391  0.63544816     0.02800
C865        C  0.80917964  0.18905938  0.64924499    -0.17700
C866        C  0.77287606  0.15294444  0.63428008     0.02800
C867        C  0.77522762  0.15343385  0.60473020     0.02800
C868        C  0.81333313  0.19034135  0.59109081    -0.17700
H869        H  0.81428308  0.19118321  0.56846999     0.04800
H870        H  0.80627671  0.18962078  0.67179519     0.04800
C871        C  0.39849725  0.16007572  0.64015114     0.02800
C872        C  0.39985627  0.16466860  0.61083534     0.02800
C873        C  0.40351186  0.20441353  0.59922159    -0.17700
C874        C  0.40940042  0.24060702  0.61623128     0.02800
C875        C  0.40456605  0.23456652  0.64564364     0.02800
C876        C  0.39565051  0.19255068  0.65694021    -0.17700
H877        H  0.39107298  0.18676150  0.67917417     0.04800
H878        H  0.40696704  0.20927635  0.57676419     0.04800
C879        C  0.61431993  0.84336240  0.88701748     0.02800
C880        C  0.61374842  0.83868958  0.85758980     0.02800
C881        C  0.62020941  0.80409425  0.84606787    -0.17700
C882        C  0.61663726  0.76842744  0.86282526     0.02800
C883        C  0.61458681  0.77150065  0.89219843     0.02800
C884        C  0.61788389  0.81115826  0.90386449    -0.17700
H885        H  0.61746203  0.81413743  0.92632635     0.04800
H886        H  0.62153420  0.80144123  0.82359234     0.04800
O887        O  0.51037672  0.92135040  0.78337895    -0.78000
C888        C  0.39616221  0.94778313  0.79695457     0.83100
O889        O  0.46098386  0.91960324  0.69133658    -0.79100
O890        O  0.43767350  0.04360703  0.72760519    -0.80500
O891        O  0.58242746  0.08941251  0.78129869    -0.80300
O892        O  0.58012408  0.98576045  0.78336608    -0.79000
Zn893      Zn  0.46428441  0.93116873  0.76148037     1.55700
O894        O  0.51470031  0.08955471  0.78029018    -0.80400
Cd895      Cd  0.56550257  0.02869475  0.75939054     1.59700
Cd896      Cd  0.49409897  0.98748135  0.70522669     1.59600
O897        O  0.60937106  0.04998495  0.72475095    -0.80400
O898        O  0.49754176  0.99333450  0.74691265    -1.90900
Cd899      Cd  0.46657870  0.02786631  0.76084580     1.59900
O900        O  0.56124021  0.02423380  0.68784582    -0.80300
O901        O  0.41300694  0.98922097  0.78909885    -0.79000
C902        C  0.43863811  0.88178429  0.70468264     0.83600
C903        C  0.55371620  0.94385268  0.79057023     0.83200
O904        O  0.41269992  0.92326243  0.78770461    -0.77900
C905        C  0.55829774  0.10857005  0.78694082     0.84000
O906        O  0.43567675  0.88097997  0.73127788    -0.78000
C907        C  0.60238514  0.04672069  0.69847882     0.84200
C908        C  0.43809059  0.03790747  0.70135087     0.84500
O909        O  0.45709091  0.01696290  0.69010745    -0.80400
O910        O  0.41022405  0.48785935  0.78965789    -0.78000
C911        C  0.54759724  0.60343896  0.79741388     0.83100
O912        O  0.46089434  0.53492727  0.69369606    -0.79100
O913        O  0.61011248  0.55736486  0.73415513    -0.80500
O914        O  0.51175184  0.42169726  0.78696288    -0.80300
O915        O  0.41133002  0.42255746  0.79179481    -0.79000
Zn916      Zn  0.46262784  0.53103314  0.76406716     1.55700
O917        O  0.57813204  0.48887985  0.78994975    -0.80400
Cd918      Cd  0.46640721  0.43715278  0.76545814     1.59700
Cd919      Cd  0.49682622  0.50315903  0.70939976     1.59600
O920        O  0.44199992  0.39336867  0.73260059    -0.80400
O921        O  0.49696136  0.50160536  0.75132891    -1.90900
Cd922      Cd  0.56278275  0.53253073  0.76680694     1.59900
O923        O  0.46531557  0.43649523  0.69386433    -0.80300
O924        O  0.57415856  0.58699691  0.79185482    -0.79000
C925        C  0.43805057  0.55153894  0.70576904     0.83600
C926        C  0.39416175  0.44727117  0.79915000     0.83200
O927        O  0.50620915  0.58609938  0.78725629    -0.77900
C928        C  0.55424941  0.44600307  0.79533442     0.84000
O929        O  0.43517559  0.55154892  0.73234726    -0.78000
C930        C  0.44577597  0.39760780  0.70620712     0.84200
C931        C  0.60621030  0.55718220  0.70770050     0.84500
O932        O  0.56637510  0.53887465  0.69530227    -0.80400
O933        O  0.40876781  0.92391515  0.96451255    -0.78000
C934        C  0.54950307  0.94686649  0.95028813     0.83100
O935        O  0.46340527  0.93125122  0.55771697    -0.79100
O936        O  0.61095678  0.05364172  0.51309716    -0.80500
O937        O  0.51130754  0.08883266  0.95876051    -0.80300
O938        O  0.40670704  0.98871343  0.96227318    -0.79000
Zn939      Zn  0.46588281  0.93493845  0.98556668     1.55700
O940        O  0.57976021  0.09027842  0.95900002    -0.80400
Cd941      Cd  0.46731112  0.03219338  0.98367756     1.59700
Cd942      Cd  0.49788643  0.99681765  0.53968100     1.59600
O943        O  0.44600576  0.05594801  0.51696642    -0.80400
O944        O  0.49846346  0.99798664  0.99767986    -1.90900
Cd945      Cd  0.56482422  0.03166698  0.98248358     1.59900
O946        O  0.46766547  0.03318336  0.55516838    -0.80300
O947        O  0.57697478  0.98873585  0.95706349    -0.79000
C948        C  0.44492933  0.89209411  0.54595178     0.83600
C949        C  0.38878347  0.94621968  0.95695849     0.83200
O950        O  0.50768287  0.92394836  0.95999463    -0.77900
C951        C  0.55469880  0.10773353  0.95175281     0.84000
O952        O  0.44433396  0.88859555  0.51943639    -0.78000
C953        C  0.45001899  0.05486166  0.54332335     0.84200
C954        C  0.60690459  0.05223869  0.53958633     0.84500
O955        O  0.56723338  0.03144826  0.55221254    -0.80400
O956        O  0.51909498  0.58350561  0.96297692    -0.78000
C957        C  0.39984010  0.44103528  0.95881003     0.83100
O958        O  0.46759373  0.53450431  0.55750420    -0.79100
O959        O  0.45764350  0.39367127  0.52498951    -0.80500
O960        O  0.59259227  0.48946156  0.96228066    -0.80300
O961        O  0.59027787  0.59086228  0.96250042    -0.79000
Zn962      Zn  0.47606236  0.52939731  0.98635901     1.55700
O963        O  0.52432848  0.42345748  0.96366741    -0.80400
Cd964      Cd  0.57767717  0.53363089  0.98634619     1.59700
Cd965      Cd  0.50734011  0.50601932  0.54314223     1.59600
O966        O  0.62176786  0.55689916  0.52032472    -0.80400
O967        O  0.51015281  0.50104376  0.00038757    -1.90900
Cd968      Cd  0.47883092  0.43529382  0.98801820     1.59900
O969        O  0.57523056  0.54483975  0.55747954    -0.80300
O970        O  0.41703524  0.41615191  0.96600021    -0.79000
C971        C  0.44548172  0.55025683  0.54398474     0.83600
C972        C  0.56239600  0.60522102  0.95558335     0.83200
O973        O  0.42092001  0.48382308  0.96426152    -0.77900
C974        C  0.56727271  0.44710815  0.95546650     0.84000
O975        O  0.44659659  0.55092602  0.51738419    -0.78000
C976        C  0.61580977  0.56020111  0.54641443     0.84200
C977        C  0.46125829  0.40181947  0.55109922     0.84500
O978        O  0.47946540  0.44213621  0.56115279    -0.80400
C979        C  0.66116268  0.32674432  0.84339415     0.46000
H980        H  0.66345299  0.32833177  0.82046261    -0.03000
C981        C  0.66017206  0.32382162  0.89747289     0.46100
H982        H  0.65942215  0.32349369  0.92059694    -0.03000
C983        C  0.63279642  0.34779399  0.85625410    -0.16700
C984        C  0.63717542  0.27668657  0.85494137    -0.16500
C985        C  0.71130277  0.35383894  0.85688645    -0.16800
C986        C  0.63219470  0.34594293  0.88525546    -0.16800
C987        C  0.63952609  0.27548820  0.88369374    -0.16400
C988        C  0.71081839  0.35203567  0.88574104    -0.16700
C989        C  0.55298642  0.38280964  0.92378555    -0.05200
C990        C  0.58641179  0.42343483  0.93725760     0.00700
C991        C  0.63516446  0.43774249  0.93381373    -0.07900
C992        C  0.64784887  0.41040869  0.91754162    -0.05300
C993        C  0.61413453  0.37001978  0.90397971     0.00700
C994        C  0.56555460  0.35559434  0.90768260    -0.07800
C995        C  0.52631759  0.30982743  0.89706743     0.62600
H996        H  0.51596713  0.37164402  0.92645497     0.13300
H997        H  0.68473834  0.42112886  0.91453031     0.13300
C998        C  0.67396918  0.48131126  0.94716062     0.62800
F999        F  0.48198916  0.30444109  0.90122492    -0.22300
F1000       F  0.52767531  0.27511680  0.91144156    -0.19700
F1001       F  0.53123870  0.30555949  0.86888137    -0.19400
F1002       F  0.66749862  0.47922544  0.97578706    -0.19400
F1003       F  0.67312311  0.51901001  0.93651448    -0.19700
F1004       F  0.71840891  0.48756540  0.94193623    -0.22400
C1005       C  0.59203732  0.22796441  0.92360616    -0.05200
C1006       C  0.62143421  0.23234941  0.90105393     0.00700
C1007       C  0.63120670  0.19598479  0.89641312    -0.07900
C1008       C  0.60799666  0.15601268  0.91313148    -0.05300
C1009       C  0.57673324  0.15103208  0.93471311     0.00700
C1010       C  0.56920045  0.18820375  0.94027548    -0.07800
C1011       C  0.53911411  0.18717213  0.96458252     0.62600
H1012       H  0.58603100  0.25614717  0.92781641     0.13300
H1013       H  0.61475452  0.12811328  0.90933647     0.13300
C1014       C  0.66659726  0.19663688  0.87555546     0.62800
F1015       F  0.54127082  0.22889567  0.96840420    -0.22300
F1016       F  0.55548987  0.17733120  0.98853731    -0.19700
F1017       F  0.49234681  0.15418007  0.96026464    -0.19400
F1018       F  0.69202821  0.23749856  0.86131986    -0.19400
F1019       F  0.64306556  0.16176619  0.85636940    -0.19700
F1020       F  0.69868870  0.18876025  0.88957857    -0.22400
C1021       C  0.56538985  0.37903137  0.80190262    -0.05200
C1022       C  0.57621523  0.42286524  0.81082832     0.00700
C1023       C  0.60646939  0.44240854  0.83411090    -0.07900
C1024       C  0.62481662  0.41730291  0.84734961    -0.05300
C1025       C  0.61325270  0.37266386  0.83905754     0.00700
C1026       C  0.58324055  0.35353913  0.81522003    -0.07800
C1027       C  0.56886760  0.30659171  0.80322711     0.62600
H1028       H  0.54303187  0.36499935  0.78371979     0.13300
H1029       H  0.64934557  0.43318259  0.86429368     0.13300
C1030       C  0.61830855  0.48894855  0.84565914     0.62800
F1031       F  0.53037780  0.29090701  0.78557784    -0.22300
F1032       F  0.55605987  0.27481144  0.82426628    -0.19700
F1033       F  0.60558395  0.30867921  0.78788575    -0.19400
F1034       F  0.57710058  0.48955806  0.85084365    -0.19400
F1035       F  0.64578923  0.52308957  0.82667177    -0.19700
F1036       F  0.64316441  0.49879827  0.87045527    -0.22400
C1037       C  0.63995620  0.23254224  0.81328960    -0.05200
C1038       C  0.61381628  0.23435275  0.83620540     0.00700
C1039       C  0.56780141  0.19524840  0.84084410    -0.07900
C1040       C  0.55274567  0.15533925  0.82481034    -0.05300
C1041       C  0.57974630  0.15278432  0.80300710     0.00700
C1042       C  0.62387800  0.19255307  0.79663124    -0.07800
C1043       C  0.65322171  0.19342979  0.77187980     0.62600
H1044       H  0.67425183  0.26239242  0.80914672     0.13300
H1045       H  0.51838333  0.12551823  0.82916529     0.13300
C1046       C  0.53100585  0.19321582  0.86086329     0.62800
F1047       F  0.69326239  0.23616891  0.76827867    -0.22300
F1048       F  0.62649978  0.18300525  0.74785734    -0.19700
F1049       F  0.66759569  0.16171397  0.77567026    -0.19400
F1050       F  0.48965407  0.18053802  0.84647984    -0.19400
F1051       F  0.54469467  0.23463205  0.87323521    -0.19700
F1052       F  0.52147989  0.16062129  0.88127309    -0.22400
C1053       C  0.55494933  0.69021764  0.85081783    -0.05200
C1054       C  0.60271959  0.72426271  0.84881482     0.00700
C1055       C  0.63323200  0.71720447  0.83125537    -0.07900
C1056       C  0.61387044  0.67705580  0.81502227    -0.05300
C1057       C  0.56545627  0.64383111  0.81609317     0.00700
C1058       C  0.53567784  0.64969722  0.83514668    -0.07800
C1059       C  0.48385603  0.61370537  0.83931473     0.62600
H1060       H  0.53213360  0.69648029  0.86409523     0.13300
H1061       H  0.63684772  0.67205068  0.80095901     0.13300
C1062       C  0.68598761  0.75043317  0.82877113     0.62800
F1063       F  0.46472358  0.62304166  0.86246242    -0.22300
F1064       F  0.47910173  0.57094356  0.84332555    -0.19700
F1065       F  0.45805838  0.61261270  0.81624081    -0.19400
F1066       F  0.70989329  0.72736947  0.83457387    -0.19400
F1067       F  0.70228896  0.78718619  0.84688792    -0.19700
F1068       F  0.69660608  0.76722830  0.80176410    -0.22400
C1069       C  0.62808183  0.91318438  0.83829382    -0.05200
C1070       C  0.59994364  0.86514030  0.83882500     0.00700
C1071       C  0.55747228  0.84332900  0.82314866    -0.07900
C1072       C  0.54520836  0.87075914  0.80740546    -0.05300
C1073       C  0.57260685  0.91906805  0.80717357     0.00700
C1074       C  0.61516752  0.94085521  0.82295677    -0.07800
C1075       C  0.64660803  0.99275158  0.82436291     0.62600
H1076       H  0.66025212  0.92890447  0.85035934     0.13300
H1077       H  0.51350162  0.85402314  0.79487783     0.13300
C1078       C  0.52427550  0.79136923  0.82288676     0.62800
F1079       F  0.68400354  0.00595254  0.84257952    -0.22300
F1080       F  0.62064460  0.01218796  0.83361468    -0.19700
F1081       F  0.66534724  0.00991504  0.79824716    -0.19400
F1082       F  0.51741074  0.77346832  0.84955889    -0.19400
F1083       F  0.54282848  0.77093305  0.80616951    -0.19700
F1084       F  0.48023743  0.77951978  0.81242009    -0.22400
C1085       C  0.63267571  0.71228564  0.90922537    -0.05200
C1086       C  0.60319273  0.73132364  0.91043829     0.00700
C1087       C  0.56098838  0.70892743  0.92648731    -0.07900
C1088       C  0.55083959  0.66912846  0.94127494    -0.05300
C1089       C  0.57943893  0.64908834  0.93972064     0.00700
C1090       C  0.62127454  0.67101575  0.92317926    -0.07800
C1091       C  0.65306207  0.65074688  0.91930916     0.62600
H1092       H  0.66435033  0.72966488  0.89654545     0.13300
H1093       H  0.51963320  0.65321387  0.95438616     0.13300
C1094       C  0.52551183  0.72550941  0.92798834     0.62800
F1095       F  0.68874674  0.67537267  0.90008518    -0.22300
F1096       F  0.62678335  0.60609762  0.90969249    -0.19700
F1097       F  0.67405056  0.65122004  0.94440583    -0.19400
F1098       F  0.51793578  0.73803389  0.90191958    -0.19400
F1099       F  0.54185294  0.76256894  0.94583430    -0.19700
F1100       F  0.48204316  0.69150681  0.93794455    -0.22400
C1101       C  0.55387918  0.86415015  0.89798454    -0.05200
C1102       C  0.60080913  0.87457156  0.90077410     0.00700
C1103       C  0.63228255  0.91200775  0.91764716    -0.07900
C1104       C  0.61461017  0.93606252  0.93266926    -0.05300
C1105       C  0.56675913  0.92370397  0.93124805     0.00700
C1106       C  0.53633812  0.88858819  0.91246284    -0.07800
C1107       C  0.48560578  0.87666817  0.90737440     0.62600
H1108       H  0.53039902  0.83548691  0.88493520     0.13300
H1109       H  0.63773111  0.96347800  0.94663715     0.13300
C1110       C  0.68398059  0.92596247  0.92017713     0.62800
F1111       F  0.46707355  0.85013539  0.88364250    -0.22300
F1112       F  0.48365720  0.91637781  0.90367346    -0.19700
F1113       F  0.45747033  0.85209022  0.92979567    -0.19400
F1114       F  0.70977765  0.96744261  0.93395214    -0.19400
F1115       F  0.70366680  0.93068031  0.89395979    -0.19700
F1116       F  0.68808061  0.89295154  0.93492783    -0.22400
C1117       C  0.38765323  0.29068282  0.59040052    -0.05200
C1118       C  0.42341670  0.28489936  0.60225315     0.00700
C1119       C  0.47152494  0.31895210  0.59808875    -0.07900
C1120       C  0.48206280  0.35822414  0.58259565    -0.05300
C1121       C  0.44642644  0.36320621  0.57026737     0.00700
C1122       C  0.39848062  0.32982720  0.57451471    -0.07800
C1123       C  0.35937335  0.33592637  0.56232574     0.62600
H1124       H  0.35120976  0.26377575  0.59325106     0.13300
H1125       H  0.51847664  0.38446881  0.57869801     0.13300
C1126       C  0.51172657  0.31294183  0.60835800     0.62800
F1127       F  0.31514449  0.30149193  0.57092689    -0.22300
F1128       F  0.36109608  0.33518815  0.53349540    -0.19700
F1129       F  0.36503652  0.37759303  0.57085218    -0.19400
F1130       F  0.50870960  0.27445605  0.59625256    -0.19400
F1131       F  0.50941498  0.30828350  0.63692382    -0.19700
F1132       F  0.55554279  0.35017646  0.60169222    -0.22400
C1133       C  0.38493707  0.29415072  0.65857120    -0.05200
C1134       C  0.41134399  0.27270094  0.66438248     0.00700
C1135       C  0.44639969  0.29120157  0.68571281    -0.07900
C1136       C  0.45649005  0.33279044  0.69794266    -0.05300
C1137       C  0.43261656  0.35569013  0.69045835     0.00700
C1138       C  0.39555834  0.33604961  0.67094417    -0.07800
C1139       C  0.36717338  0.35876580  0.66367050     0.62600
H1140       H  0.35628231  0.27806879  0.64377311     0.13300
H1141       H  0.48310685  0.34782487  0.71411162     0.13300
C1142       C  0.47203661  0.26759551  0.69730521     0.62800
F1143       F  0.33129469  0.33276619  0.64498334    -0.22300
F1144       F  0.39644745  0.40125082  0.65166850    -0.19700
F1145       F  0.34701087  0.36439563  0.68762693    -0.19400
F1146       F  0.48712670  0.25013255  0.67638459    -0.19400
F1147       F  0.44217918  0.23250513  0.71509301    -0.19700
F1148       F  0.51172453  0.29769080  0.71243110    -0.22400
C1149       C  0.46103205  0.10073486  0.66940990    -0.05200
C1150       C  0.42393331  0.06351548  0.68313954     0.00700
C1151       C  0.37768542  0.05628422  0.68178385    -0.07900
C1152       C  0.37054165  0.08838455  0.66707857    -0.05300
C1153       C  0.40824057  0.12664809  0.65393315     0.00700
C1154       C  0.45464063  0.13347499  0.65557732    -0.07800
C1155       C  0.49958780  0.17515380  0.64502887     0.62600
H1156       H  0.49647042  0.10603609  0.67112546     0.13300
H1157       H  0.33561064  0.08422886  0.66601653     0.13300
C1158       C  0.33645108  0.01462117  0.69524253     0.62800
F1159       F  0.53008925  0.19563551  0.66722288    -0.22300
F1160       F  0.49236568  0.20788793  0.63267804    -0.19700
F1161       F  0.52124766  0.16111450  0.62584996    -0.19400
F1162       F  0.34247805  0.01628401  0.72382934    -0.19400
F1163       F  0.33396466  0.97513196  0.68498276    -0.19700
F1164       F  0.29391685  0.01241866  0.68975618    -0.22400
C1165       C  0.45281992  0.15551280  0.57898798    -0.05200
C1166       C  0.40881671  0.13457202  0.59244293     0.00700
C1167       C  0.37719567  0.08679146  0.58885159    -0.07900
C1168       C  0.39252919  0.06143177  0.57321580    -0.05300
C1169       C  0.43714327  0.08272682  0.56040788     0.00700
C1170       C  0.46783706  0.13064148  0.56314702    -0.07800
C1171       C  0.51685059  0.15787829  0.55029778     0.62600
H1172       H  0.47654196  0.19211190  0.58126898     0.13300
H1173       H  0.36897301  0.02482630  0.57037871     0.13300
C1174       C  0.32671334  0.06121123  0.59959083     0.62800
F1175       F  0.51862113  0.19209535  0.53350140    -0.22300
F1176       F  0.52950698  0.13160024  0.53448041    -0.19700
F1177       F  0.54989168  0.17836014  0.57126487    -0.19400
F1178       F  0.29642116  0.04059373  0.57734892    -0.19400
F1179       F  0.31346104  0.08937102  0.61279580    -0.19700
F1180       F  0.32129220  0.02732526  0.61805867    -0.22400
C1181       C  0.69731012  0.13963370  0.65356385    -0.05200
C1182       C  0.72825689  0.12284833  0.64961350     0.00700
C1183       C  0.71771107  0.08053219  0.66182088    -0.07900
C1184       C  0.67530241  0.05557135  0.67707638    -0.05300
C1185       C  0.64361732  0.07174824  0.67998723     0.00700
C1186       C  0.65423238  0.11405538  0.66772158    -0.07800
C1187       C  0.62058412  0.13245460  0.67001004     0.62600
H1188       H  0.70751406  0.17344693  0.64561231     0.13300
H1189       H  0.66682538  0.02357441  0.68721318     0.13300
C1190       C  0.75198302  0.06303797  0.65963586     0.62800
F1191       F  0.63847497  0.17487640  0.65716141    -0.22300
F1192       F  0.61237600  0.13722696  0.69777223    -0.19700
F1193       F  0.57823082  0.10227227  0.65732483    -0.19400
F1194       F  0.79454858  0.09434341  0.67168951    -0.19400
F1195       F  0.75945911  0.05739930  0.63191108    -0.19700
F1196       F  0.73509844  0.02121996  0.67305820    -0.22400
C1197       C  0.68433624  0.06498264  0.55493985    -0.05200
C1198       C  0.64969535  0.07759931  0.55627476     0.00700
C1199       C  0.65762256  0.11618054  0.57202207    -0.07900
C1200       C  0.69924803  0.13934116  0.58739028    -0.05300
C1201       C  0.73269504  0.12512338  0.58777375     0.00700
C1202       C  0.72651711  0.08874095  0.57017890    -0.07800
C1203       C  0.76300982  0.07431504  0.56586282     0.62600
H1204       H  0.67852303  0.03653309  0.54168973     0.13300
H1205       H  0.70660498  0.16977297  0.59881964     0.13300
C1206       C  0.62359379  0.13434242  0.57139416     0.62800
F1207       F  0.74354186  0.02857638  0.57314726    -0.22300
F1208       F  0.80358558  0.09971237  0.58132679    -0.19700
F1209       F  0.77562395  0.07940287  0.53793379    -0.19400
F1210       F  0.58061797  0.10240311  0.58288717    -0.19400
F1211       F  0.61704310  0.14313033  0.54406729    -0.19700
F1212       F  0.64047437  0.17478120  0.58631571    -0.22400
C1213       C  0.85765975  0.30312795  0.65111223    -0.05200
C1214       C  0.87160018  0.27024031  0.65221045     0.00700
C1215       C  0.90997956  0.27757924  0.66920989    -0.07900
C1216       C  0.93357983  0.31858996  0.68462800    -0.05300
C1217       C  0.92035218  0.35211140  0.68278206     0.00700
C1218       C  0.88186457  0.34442449  0.66576351    -0.07800
C1219       C  0.86604725  0.37938623  0.66327911     0.62600
H1220       H  0.82762567  0.29623520  0.63840593     0.13300
H1221       H  0.96274829  0.32500613  0.69811496     0.13300
C1222       C  0.92604027  0.24259479  0.67073778     0.62800
F1223       F  0.82538982  0.36328654  0.64749121    -0.22300
F1224       F  0.90130556  0.41834728  0.65041610    -0.19700
F1225       F  0.85699944  0.39026259  0.68953518    -0.19400
F1226       F  0.96551207  0.25762269  0.68745330    -0.19400
F1227       F  0.93730133  0.23462828  0.64428990    -0.19700
F1228       F  0.89038963  0.20175753  0.68172791    -0.22400
C1229       C  0.78674926  0.35921053  0.84199630    -0.05200
C1230       C  0.75606499  0.37663713  0.83984490     0.00700
C1231       C  0.76923556  0.41529139  0.82233553    -0.07900
C1232       C  0.81221184  0.43441243  0.80736079    -0.05300
C1233       C  0.84275990  0.41657916  0.80903395     0.00700
C1234       C  0.82990605  0.37838152  0.82712055    -0.07800
C1235       C  0.86163360  0.35821514  0.83153556     0.62600
H1236       H  0.77624248  0.32982671  0.85545309     0.13300
H1237       H  0.82186919  0.46334949  0.79362533     0.13300
C1238       C  0.73873093  0.43701460  0.81947438     0.62800
F1239       F  0.84495111  0.32546218  0.85255071    -0.22300
F1240       F  0.90633355  0.39266361  0.83905471    -0.19700
F1241       F  0.86411997  0.33727968  0.80729732    -0.19400
F1242       F  0.72733182  0.44590760  0.84558196    -0.19400
F1243       F  0.69811165  0.40782880  0.80503918    -0.19700
F1244       F  0.76156944  0.47819924  0.80497532    -0.22400
C1245       C  0.91912127  0.30166566  0.59317280    -0.05200
C1246       C  0.86974633  0.27448304  0.59054194     0.00700
C1247       C  0.84481654  0.29212039  0.57556223    -0.07900
C1248       C  0.87077595  0.33436542  0.56184894    -0.05300
C1249       C  0.91978245  0.36107213  0.56429514     0.00700
C1250       C  0.94457474  0.34566345  0.58095642    -0.07800
C1251       C  0.99730473  0.37552195  0.58576992     0.62600
H1252       H  0.93741777  0.28850009  0.60537171     0.13300
H1253       H  0.85274625  0.34729423  0.54909174     0.13300
C1254       C  0.79109960  0.26803388  0.57441584     0.62800
F1255       F  0.01479813  0.35333407  0.60184159    -0.22300
F1256       F  0.00637281  0.41511561  0.59961875    -0.19700
F1257       F  0.02104640  0.38720481  0.56048097    -0.19400
F1258       F  0.77181314  0.25229089  0.60057552    -0.19400
F1259       F  0.77379354  0.23170758  0.55595644    -0.19700
F1260       F  0.77591954  0.29750453  0.56550202    -0.22400
C1261       C  0.80819572  0.37976327  0.94095311    -0.05200
C1262       C  0.83688476  0.42755422  0.93876117     0.00700
C1263       C  0.82412797  0.45077580  0.91882339    -0.07900
C1264       C  0.78307916  0.42496534  0.90219779    -0.05300
C1265       C  0.75436840  0.37681095  0.90437894     0.00700
C1266       C  0.76791484  0.35398650  0.92421476    -0.07800
C1267       C  0.74245146  0.30229093  0.92697017     0.62600
H1268       H  0.81784102  0.36230254  0.95623276     0.13300
H1269       H  0.77285435  0.44245414  0.88735769     0.13300
C1270       C  0.85400561  0.50234433  0.91450854     0.62800
F1271       F  0.73857728  0.28371561  0.90100422    -0.22300
F1272       F  0.69847258  0.28615861  0.93873666    -0.19700
F1273       F  0.76661849  0.28739707  0.94357521    -0.19400
F1274       F  0.90038173  0.51449452  0.90916403    -0.19400
F1275       F  0.85209795  0.52485841  0.93815320    -0.19700
F1276       F  0.83830720  0.51711794  0.89219065    -0.22400
C1277       C  0.94028304  0.61971145  0.69098171    -0.05200
C1278       C  0.92926733  0.57509845  0.68364718     0.00700
C1279       C  0.89583118  0.55136315  0.66245604    -0.07900
C1280       C  0.87370657  0.57283686  0.64970671    -0.05300
C1281       C  0.88524172  0.61781445  0.65648328     0.00700
C1282       C  0.91913684  0.64187540  0.67758959    -0.07800
C1283       C  0.93403425  0.69018172  0.68719871     0.62600
H1284       H  0.96552912  0.63736697  0.70756433     0.13300
H1285       H  0.84612034  0.55402518  0.63461025     0.13300
C1286       C  0.88228949  0.50297396  0.65404570     0.62800
F1287       F  0.98250786  0.71769011  0.68441024    -0.22300
F1288       F  0.92216170  0.68888480  0.71505540    -0.19700
F1289       F  0.91325712  0.71031138  0.67226251    -0.19400
F1290       F  0.86776797  0.47484971  0.67734405    -0.19400
F1291       F  0.92095366  0.50360841  0.64201207    -0.19700
F1292       F  0.84579401  0.48450890  0.63486525    -0.22400
C1293       C  0.85380266  0.58275760  0.58113813    -0.05200
C1294       C  0.88235553  0.62454476  0.59501482     0.00700
C1295       C  0.93218213  0.64615628  0.59294004    -0.07900
C1296       C  0.95164656  0.62353402  0.57816995    -0.05300
C1297       C  0.92274144  0.58178793  0.56444253     0.00700
C1298       C  0.87309908  0.56106305  0.56570130    -0.07800
C1299       C  0.84059271  0.51557010  0.55137513     0.62600
H1300       H  0.81577132  0.56643287  0.58322938     0.13300
H1301       H  0.98971382  0.63938283  0.57648128     0.13300
C1302       C  0.96600927  0.69314852  0.60487411     0.62800
F1303       F  0.79349505  0.49946493  0.55753380    -0.22300
F1304       F  0.85139055  0.48281498  0.56003336    -0.19700
F1305       F  0.84607997  0.52082874  0.52273821    -0.19400
F1306       F  0.99247215  0.68880290  0.62578560    -0.19400
F1307       F  0.94326395  0.71487117  0.61561236    -0.19700
F1308       F  0.99622241  0.72089481  0.58398393    -0.22400
C1309       C  0.71229206  0.63581667  0.66286948    -0.05200
C1310       C  0.73475634  0.60980733  0.66094246     0.00700
C1311       C  0.71337705  0.56550805  0.67358084    -0.07900
C1312       C  0.67221085  0.55070064  0.68943005    -0.05300
C1313       C  0.64968329  0.57641675  0.69100051     0.00700
C1314       C  0.66932352  0.61934372  0.67736497    -0.07800
C1315       C  0.64540064  0.64774976  0.67876549     0.62600
H1316       H  0.72879248  0.66921674  0.65296897     0.13300
H1317       H  0.65638632  0.51772510  0.70000268     0.13300
C1318       C  0.73115281  0.53180796  0.67067779     0.62800
F1319       F  0.67046903  0.68868336  0.66420922    -0.22300
F1320       F  0.64167219  0.65785547  0.70630807    -0.19700
F1321       F  0.60070039  0.62331465  0.66732489    -0.19400
F1322       F  0.75288693  0.53115672  0.69522586    -0.19400
F1323       F  0.76239501  0.54198336  0.64881311    -0.19700
F1324       F  0.69338345  0.48811709  0.66582278    -0.22400
C1325       C  0.70555180  0.57234523  0.59976835    -0.05200
C1326       C  0.73704288  0.61990114  0.59959331     0.00700
C1327       C  0.72817057  0.64858270  0.58212546    -0.07900
C1328       C  0.68808540  0.62798615  0.56471689    -0.05300
C1329       C  0.65696425  0.58028099  0.56498692     0.00700
C1330       C  0.66498752  0.55201315  0.58322353    -0.07800
C1331       C  0.63152227  0.50034773  0.58463228     0.62600
H1332       H  0.71361891  0.55091984  0.61260720     0.13300
H1333       H  0.68072461  0.64886591  0.55076375     0.13300
C1334       C  0.76059510  0.70037349  0.58201850     0.62800
F1335       F  0.64682460  0.47934154  0.60334217    -0.22300
F1336       F  0.62814372  0.48128493  0.55858003    -0.19700
F1337       F  0.58722375  0.49097609  0.59318932    -0.19400
F1338       F  0.80413976  0.71172855  0.57098607    -0.19400
F1339       F  0.76664559  0.71702691  0.60897063    -0.19700
F1340       F  0.74224999  0.72205476  0.56620920    -0.22400
C1341       C  0.35561814  0.89287815  0.83507249    -0.05200
C1342       C  0.35666461  0.92652110  0.81742891     0.00700
C1343       C  0.31822156  0.93471308  0.81798579    -0.07900
C1344       C  0.27902870  0.90677038  0.83514793    -0.05300
C1345       C  0.27658079  0.87063345  0.85102168     0.00700
C1346       C  0.31586234  0.86363785  0.85108490    -0.07800
C1347       C  0.31794051  0.82485046  0.86579300     0.62600
H1348       H  0.38545304  0.88731392  0.83505895     0.13300
H1349       H  0.24865185  0.91138631  0.83533504     0.13300
C1350       C  0.31689168  0.97055919  0.79947639     0.62800
F1351       F  0.35336820  0.84300875  0.88560484    -0.22300
F1352       F  0.32820178  0.80056054  0.84649554    -0.19700
F1353       F  0.27647513  0.79426054  0.87875931    -0.19400
F1354       F  0.32143477  0.96158907  0.77183733    -0.19400
F1355       F  0.35326801  0.01383398  0.80654907    -0.19700
F1356       F  0.27485457  0.97056953  0.80225086    -0.22400
C1357       C  0.08029394  0.70018767  0.83977011    -0.05200
C1358       C  0.12939494  0.72718298  0.83513612     0.00700
C1359       C  0.15031291  0.71382793  0.81353244    -0.07900
C1360       C  0.12118667  0.67342196  0.79881777    -0.05300
C1361       C  0.07343626  0.64453200  0.80540933     0.00700
C1362       C  0.05219086  0.65795819  0.82623398    -0.07800
C1363       C  0.00097618  0.62744266  0.83509607     0.62600
H1364       H  0.06417842  0.71180063  0.85496552     0.13300
H1365       H  0.13597000  0.66368396  0.78171808     0.13300
C1366       C  0.20222109  0.74059215  0.80453255     0.62800
F1367       F  0.99018843  0.64398836  0.85874566    -0.22300
F1368       F  0.99230354  0.58371905  0.84116023    -0.19700
F1369       F  0.97138169  0.62518910  0.81387512    -0.18800
F1370       F  0.21495062  0.71320495  0.78972240    -0.19400
F1371       F  0.23222240  0.75720381  0.82704303    -0.19700
F1372       F  0.20975427  0.77645150  0.78718639    -0.22400
C1373       C  0.28334426  0.90969130  0.90877291    -0.05200
C1374       C  0.25863733  0.86201506  0.91356060     0.00700
C1375       C  0.27343787  0.84381051  0.93573587    -0.07900
C1376       C  0.31523384  0.87379351  0.94969981    -0.05300
C1377       C  0.34263464  0.92040242  0.94274986     0.00700
C1378       C  0.32570508  0.93940928  0.92263819    -0.07800
C1379       C  0.35245236  0.99009041  0.91499812     0.62600
H1380       H  0.26991119  0.92325871  0.89311117     0.13300
H1381       H  0.32716083  0.86079007  0.96656495     0.13300
C1382       C  0.24631193  0.79404344  0.94605820     0.62800
F1383       F  0.33141482  0.99984097  0.89308670    -0.22300
F1384       F  0.39811312  0.00318671  0.90697412    -0.19700
F1385       F  0.35350357  0.01587341  0.93771573    -0.19400
F1386       F  0.27385117  0.78369975  0.96301246    -0.19400
F1387       F  0.23141737  0.76324810  0.92429952    -0.19700
F1388       F  0.20784476  0.78708521  0.96178900    -0.22400
C1389       C  0.09723692  0.64180481  0.91740206    -0.05200
C1390       C  0.06303523  0.64170661  0.93495384     0.00700
C1391       C  0.05259813  0.67762768  0.93272885    -0.07900
C1392       C  0.07962412  0.71396627  0.91406787    -0.05300
C1393       C  0.11698053  0.71595695  0.89845069     0.00700
C1394       C  0.12590711  0.67895345  0.90014474    -0.07800
C1395       C  0.16623897  0.67672207  0.88614709     0.62600
H1396       H  0.10383619  0.61337921  0.91842463     0.13300
H1397       H  0.07350028  0.74257920  0.91250240     0.13300
C1398       C  0.01524375  0.67922951  0.95074678     0.62800
F1399       F  0.19108068  0.66771282  0.90603743    -0.22300
F1400       F  0.19785564  0.71662988  0.87293559    -0.19700
F1401       F  0.14805125  0.64152292  0.86680254    -0.19400
F1402       F  0.02552433  0.67843449  0.97866682    -0.19400
F1403       F  0.97118473  0.64201987  0.94487139    -0.19700
F1404       F  0.01314354  0.71866326  0.94601236    -0.22400
C1405       C  0.35829635  0.46243259  0.83937856    -0.05200
C1406       C  0.35615584  0.43010904  0.82027366     0.00700
C1407       C  0.31748758  0.38439756  0.82118247    -0.07900
C1408       C  0.28084519  0.37381914  0.84038763    -0.05300
C1409       C  0.28134213  0.40739201  0.85796966     0.00700
C1410       C  0.32127951  0.45256922  0.85776865    -0.07800
C1411       C  0.32708215  0.49293506  0.87490042     0.62600
H1412       H  0.38867354  0.49698590  0.83903954     0.13300
H1413       H  0.24992464  0.33969681  0.84079439     0.13300
C1414       C  0.31328294  0.34767174  0.80110713     0.62800
F1415       F  0.33569310  0.52885305  0.85722205    -0.22300
F1416       F  0.28829990  0.48319718  0.89077241    -0.19700
F1417       F  0.36530223  0.50728420  0.89255400    -0.19400
F1418       F  0.34922203  0.33845432  0.80593195    -0.19400
F1419       F  0.31600780  0.36253900  0.77387187    -0.19700
F1420       F  0.27077362  0.30691306  0.80424519    -0.22400
C1421       C  0.28930796  0.37351570  0.91409504    -0.05200
C1422       C  0.26476878  0.39659731  0.92091105     0.00700
C1423       C  0.28116965  0.42767912  0.94404980    -0.07900
C1424       C  0.32468682  0.43897379  0.95591197    -0.05300
C1425       C  0.35211454  0.42067939  0.94637501     0.00700
C1426       C  0.33338880  0.38566194  0.92597263    -0.07800
C1427       C  0.36037087  0.36282835  0.91577576     0.62600
H1428       H  0.27474265  0.34740384  0.89806639     0.13300
H1429       H  0.33827571  0.46301241  0.97311527     0.13300
C1430       C  0.25432362  0.44897559  0.95743252     0.62800
F1431       F  0.33721019  0.33248222  0.89413429    -0.22300
F1432       F  0.36540288  0.33845117  0.93738229    -0.19700
F1433       F  0.40452395  0.39581046  0.90618936    -0.19400
F1434       F  0.21533337  0.41543871  0.97163765    -0.19400
F1435       F  0.24063214  0.46979618  0.93779201    -0.19700
F1436       F  0.28148531  0.48246085  0.97681172    -0.22400
C1437       C  0.08848131  0.38922544  0.84649048    -0.05200
C1438       C  0.13760786  0.41079634  0.84224577     0.00700
C1439       C  0.15830745  0.44216871  0.81937647    -0.07900
C1440       C  0.12861852  0.44997853  0.80212675    -0.05300
C1441       C  0.08047307  0.43133165  0.80791832     0.00700
C1442       C  0.05994303  0.40093784  0.83080804    -0.07800
C1443       C  0.00923922  0.38325626  0.83990674     0.62600
H1444       H  0.07259157  0.36386920  0.86291855     0.13300
H1445       H  0.14348876  0.47239771  0.78415628     0.13300
C1446       C  0.21113991  0.46965530  0.81281645     0.62800
F1447       F  0.99923767  0.36058755  0.86533350    -0.22300
F1448       F  0.97848174  0.35295584  0.82027710    -0.19700
F1449       F  0.00161798  0.41980148  0.84287939    -0.19400
F1450       F  0.22360213  0.44399214  0.79613614    -0.19400
F1451       F  0.23796866  0.48276819  0.83680186    -0.19700
F1452       F  0.22279730  0.50967652  0.79843183    -0.22400
C1453       C  0.10691201  0.46973701  0.92200505    -0.05200
C1454       C  0.06967622  0.43641070  0.93825054     0.00700
C1455       C  0.05904751  0.39006914  0.93709644    -0.07900
C1456       C  0.08800134  0.37964515  0.92065380    -0.05300
C1457       C  0.12660917  0.41359101  0.90551441     0.00700
C1458       C  0.13639906  0.45967633  0.90616354    -0.07800
C1459       C  0.17720178  0.49922649  0.89068460     0.62600
H1460       H  0.11358610  0.50465981  0.92214263     0.13300
H1461       H  0.08138474  0.34478944  0.91982344     0.13300
C1462       C  0.01847151  0.35188359  0.95348053     0.62800
F1463       F  0.16270291  0.50270299  0.86423202    -0.22300
F1464       F  0.21570908  0.49342911  0.88879072    -0.19700
F1465       F  0.19207135  0.54050431  0.90431316    -0.19400
F1466       F  0.97602374  0.34575654  0.94371131    -0.19400
F1467       F  0.02309258  0.36289061  0.98155597    -0.19700
F1468       F  0.01724943  0.31042304  0.95080038    -0.22400
C1469       C  0.17495912  0.62960939  0.56979812    -0.05200
C1470       C  0.15389514  0.58359287  0.56138316     0.00700
C1471       C  0.17696691  0.55877329  0.56776176    -0.07900
C1472       C  0.22091233  0.58117461  0.58179872    -0.05300
C1473       C  0.24167571  0.62693123  0.59087868     0.00700
C1474       C  0.21846549  0.65177206  0.58437317    -0.07800
C1475       C  0.24094974  0.70232970  0.59104052     0.62600
H1476       H  0.15728666  0.64834203  0.56441234     0.13300
H1477       H  0.23941345  0.56287542  0.58583716     0.13300
C1478       C  0.15442001  0.50838294  0.56024791     0.62800
F1479       F  0.21154287  0.71940399  0.58468115    -0.22300
F1480       F  0.28162425  0.72611361  0.57534515    -0.19700
F1481       F  0.25177174  0.70990732  0.61905552    -0.19400
F1482       F  0.14724477  0.50288921  0.53174335    -0.19400
F1483       F  0.11141087  0.48384834  0.57385038    -0.19700
F1484       F  0.18233637  0.49024983  0.56796594    -0.22400
C1485       C  0.22971150  0.64584288  0.66894357    -0.05200
C1486       C  0.24421209  0.61909348  0.65415032     0.00700
C1487       C  0.21602297  0.57026830  0.65643343    -0.07900
C1488       C  0.17292176  0.55064470  0.67135071    -0.05300
C1489       C  0.15800395  0.57755347  0.68535714     0.00700
C1490       C  0.18726028  0.62601197  0.68460017    -0.07800
C1491       C  0.17316429  0.65659620  0.69998770     0.62600
H1492       H  0.25198915  0.68276786  0.66814584     0.13300
H1493       H  0.15113141  0.51353950  0.67273783     0.13300
C1494       C  0.22973883  0.53663620  0.64506184     0.62800
F1495       F  0.20399575  0.70268724  0.69456897    -0.22300
F1496       F  0.17314787  0.64961115  0.72843791    -0.19700
F1497       F  0.12841966  0.64626145  0.69182427    -0.19400
F1498       F  0.23340684  0.51197376  0.66702065    -0.19400
F1499       F  0.27212192  0.55740396  0.63090902    -0.19700
F1500       F  0.19492681  0.50617358  0.62720835    -0.22400
C1501       C  0.37117429  0.57155493  0.59786867    -0.05200
C1502       C  0.36924871  0.60878697  0.58578857     0.00700
C1503       C  0.37996732  0.61553348  0.55648729    -0.07900
C1504       C  0.40814790  0.59896926  0.54482197    -0.05300
C1505       C  0.41766591  0.56810556  0.55902131     0.00700
C1506       C  0.39563224  0.55151862  0.58542600    -0.07800
C1507       C  0.39743320  0.51286316  0.60063645     0.62600
H1508       H  0.35340581  0.55791762  0.61746468     0.13300
H1509       H  0.42058285  0.60821611  0.52351296     0.13300
C1510       C  0.35289799  0.62761310  0.53560080     0.62800
F1511       F  0.36809350  0.49786646  0.62382871    -0.22300
F1512       F  0.44297648  0.52793853  0.60965244    -0.19700
F1513       F  0.38303959  0.47570167  0.58298508    -0.19400
F1514       F  0.37341052  0.67444836  0.53236451    -0.19400
F1515       F  0.30626049  0.60841271  0.54383217    -0.19700
F1516       F  0.35217276  0.60975307  0.50942528    -0.22400
C1517       C  0.35636413  0.59174977  0.67479688    -0.05200
C1518       C  0.38400059  0.61988036  0.65243311     0.00700
C1519       C  0.43031008  0.62613462  0.64899360    -0.07900
C1520       C  0.44459793  0.60127576  0.66595876    -0.05300
C1521       C  0.41716075  0.57367979  0.68820817     0.00700
C1522       C  0.37223695  0.56919124  0.69300048    -0.07800
C1523       C  0.34048775  0.53981722  0.71670907     0.62600
H1524       H  0.32168396  0.58741481  0.67797949     0.13300
H1525       H  0.47933510  0.60552548  0.66261880     0.13300
C1526       C  0.46787048  0.65986941  0.62924469     0.62800
F1527       F  0.29655971  0.53626046  0.71591334    -0.22300
F1528       F  0.36094164  0.55908829  0.74205320    -0.19700
F1529       F  0.33377051  0.49597573  0.71498818    -0.19400
F1530       F  0.45431475  0.68707998  0.61600284    -0.19400
F1531       F  0.47849289  0.63660982  0.60946628    -0.19700
F1532       F  0.50850318  0.68837340  0.64408932    -0.22400
C1533       C  0.37077923  0.79260923  0.59635995    -0.05200
C1534       C  0.38855431  0.76287980  0.59130256     0.00700
C1535       C  0.42667967  0.77808668  0.57161503    -0.07900
C1536       C  0.44409628  0.82078172  0.55817297    -0.05300
C1537       C  0.42560045  0.84938190  0.56304147     0.00700
C1538       C  0.38841081  0.83538576  0.58260258    -0.07800
C1539       C  0.36650028  0.86485407  0.58825172     0.62600
H1540       H  0.34174150  0.78151541  0.61082916     0.13300
H1541       H  0.47305795  0.83218707  0.54338203     0.13300
C1542       C  0.45272702  0.75327239  0.56404497     0.62800
F1543       F  0.32809750  0.84337033  0.60614867    -0.22300
F1544       F  0.35123394  0.87396281  0.56345100    -0.19700
F1545       F  0.39961963  0.90579883  0.60034468    -0.19400
F1546       F  0.45522484  0.75069328  0.53530051    -0.19400
F1547       F  0.43125432  0.70970135  0.57435184    -0.19700
F1548       F  0.49832819  0.77741080  0.57427044    -0.22400
C1549       C  0.35424983  0.77205258  0.66483462    -0.05200
C1550       C  0.38526900  0.75752633  0.65541529     0.00700
C1551       C  0.43316261  0.78274456  0.66409696    -0.07900
C1552       C  0.44877387  0.82265264  0.68040124    -0.05300
C1553       C  0.41814375  0.83789933  0.68882871     0.00700
C1554       C  0.36993560  0.81211820  0.68116601    -0.07800
C1555       C  0.33571637  0.82770991  0.68965722     0.62600
H1556       H  0.31771378  0.75255983  0.65843089     0.13300
H1557       H  0.48544799  0.84265949  0.68666996     0.13300
C1558       C  0.46766147  0.76741183  0.65652785     0.62800
F1559       F  0.29052854  0.79831339  0.67988921    -0.22300
F1560       F  0.35082527  0.87104136  0.67889790    -0.19700
F1561       F  0.33369110  0.82924098  0.71845345    -0.19400
F1562       F  0.47231346  0.76813571  0.62793890    -0.19400
F1563       F  0.45106681  0.72354361  0.66664808    -0.19700
F1564       F  0.51204423  0.79567638  0.66772942    -0.22400
loop_ 
_geom_bond_atom_site_label_1 
_geom_bond_atom_site_label_2 
_geom_bond_distance 
_geom_bond_site_symmetry_2 
_ccdc_geom_bond_type 
C1            H2   1.087       .  S
C1            C7   1.549       .  S
C1            C6   1.565       .  S
C1            C5   1.573       .  S
C3            H4   1.111       .  S
C3            C9   1.550       .  S
C3            C8   1.559       .  S
C3           C10   1.555       .  S
C5            C8   1.409       .  D
C5          C720   1.552       .  S
C6            C9   1.382       .  D
C6          C752   1.529       .  S
C7           C10   1.375       .  D
C7          C691   1.512       .  S
C8          C736   1.528       .  S
C9          C768   1.516       .  S
C10         C704   1.513       .  S
C11          C12   1.419       .  A
C11          C16   1.402       .  A
C11         C675   1.485       .  S
C12          C13   1.396       .  A
C12         C656   1.492       .  S
C13          C14   1.400       .  A
C13          H18   1.082       .  S
C14          C15   1.422       .  A
C14         C627   1.481       .  S
C15          C16   1.400       .  A
C15         C640   1.499       .  S
C16          H17   1.076       .  S
C19          C20   1.422       .  A
C19          C24   1.399       .  A
C19         C576   1.497       .  S
C20          C21   1.398       .  A
C20         C611   1.479       .  S
C21          C22   1.393       .  A
C21          H26   1.079       .  S
C22          C23   1.418       .  A
C22         C592   1.487       .  S
C23          C24   1.401       .  A
C23         C563   1.483       .  S
C24          H25   1.077       .  S
C27          C28   1.417       .  A
C27          C32   1.401       .  A
C27         C528   1.485       .  S
C28          C29   1.398       .  A
C28         C544   1.482       .  S
C29          C30   1.399       .  A
C29          H34   1.085       .  S
C30          C31   1.416       .  A
C30         C512   1.482       .  S
C31          C32   1.400       .  A
C31         C499   1.484       .  S
C32          H33   1.082       .  S
O35          C51   1.275       .  A
O35         Zn41   1.997       .  S
C36         C608   1.475       .  S
C36          O52   1.276       .  A
C36          O49   1.269   1_455  A
O37          C50   1.275       .  A
O37         Cd44   2.103   1_455  S
O38          C56   1.273       .  A
O38        Cd829   2.042   1_554  S
O39          C53   1.278       .  A
O39         Cd43   2.102       .  S
O40          C51   1.271       .  A
O40         Cd43   2.058   1_455  S
Zn41         O52   2.004       .  S
Zn41        O836   2.068       .  S
Zn41         O46   1.935   1_455  S
O42          C53   1.274       .  A
O42         Cd47   2.103       .  S
Cd43        O827   2.052       .  S
Cd43         O46   2.002       .  S
Cd44         O48   2.068       .  S
Cd44         O57   2.077       .  S
Cd44        O828   2.014       .  S
O45          C55   1.275       .  A
O45        Cd825   2.057   1_554  S
O46         Cd47   2.009       .  S
O46        Cd826   2.016       .  S
Cd47         O49   2.044       .  S
Cd47        O820   2.045       .  S
O48          C55   1.275       .  A
C50         C688   1.495       .  S
C50          O54   1.276       .  A
C51         C672   1.478       .  S
C53         C480   1.511       .  S
O54        Zn823   2.061   1_554  S
C55         C467   1.466       .  S
C56         C515   1.462       .  S
C56          O57   1.276       .  A
O58          C74   1.272       .  A
O58         Zn64   1.979       .  S
C59         C659   1.475       .  S
C59          O75   1.274       .  A
C59          O72   1.272       .  A
O60          C73   1.279       .  A
O60         Cd67   2.122       .  S
O61          C79   1.274       .  A
O61         Cd70   2.057       .  S
O62          C76   1.278       .  A
O62         Cd66   2.099       .  S
O63          C74   1.271       .  A
O63         Cd66   2.060   1_455  S
Zn64         O75   1.989       .  S
Zn64         O77   2.045       .  S
Zn64         O69   1.930   1_455  S
O65          C76   1.275       .  A
O65         Cd70   2.099       .  S
Cd66         O68   2.048       .  S
Cd66         O69   2.008       .  S
Cd67         O71   2.082   1_455  S
Cd67         O80   2.073   1_455  S
Cd67         O69   2.009   1_455  S
O68          C78   1.273       .  A
O69         Cd70   2.007       .  S
Cd70         O72   2.058   1_655  S
O71          C78   1.277       .  A
C73         C707   1.501       .  S
C73          O77   1.273       .  A
C74         C579   1.478       .  S
C76         C451   1.511       .  S
C78         C496   1.471       .  S
C79         C435   1.468       .  S
C79          O80   1.277       .  A
C81          C82   1.416       .  A
C81          C86   1.398       .  A
C81         C464   1.487       .  S
C82          C83   1.399       .  A
C82         C432   1.478       .  S
C83          C84   1.398       .  A
C83          H88   1.085       .  S
C84          C85   1.417       .  A
C84         C400   1.480       .  S
C85          C86   1.399       .  A
C85         C419   1.479       .  S
C86          H87   1.083       .  S
C89          C90   1.411       .  A
C89          C94   1.399       .  A
C89         C371   1.479       .  S
C90          C91   1.401       .  A
C90         C384   1.480       .  S
C91          C92   1.398       .  A
C91          H96   1.085       .  S
C92          C93   1.421       .  A
C92         C336   1.486       .  S
C93          C94   1.403       .  A
C93         C352   1.489       .  S
C94          H95   1.078       .  S
C97          C98   1.417       .  A
C97         C102   1.402       .  A
C97         C320   1.486       .  S
C98          C99   1.398       .  A
C98         C288   1.486       .  S
C99         C100   1.398       .  A
C99         H104   1.082       .  S
C100        C101   1.416       .  A
C100        C272   1.480       .  S
C101        C102   1.401       .  A
C101        C304   1.490       .  S
C102        H103   1.081       .  S
O105        C121   1.275       .  A
O105       Zn111   2.002       .  S
C106        C560   1.480       .  S
C106        O122   1.275       .  A
C106        O119   1.271       .  A
O107        C120   1.275       .  A
O107       Cd114   2.090       .  S
O108        C126   1.273       .  A
O108       Cd117   2.055       .  S
O109        C123   1.277       .  A
O109       Cd113   2.107       .  S
O110        C121   1.274       .  A
O110       Cd113   2.078   1_565  S
Zn111       O122   2.004       .  S
Zn111       O124   2.063       .  S
Zn111       O116   1.934       .  S
O112        C123   1.276       .  A
O112       Cd117   2.083       .  S
Cd113       O115   2.062       .  S
Cd113       O116   2.015   1_545  S
Cd114       O118   2.074   1_565  S
Cd114       O127   2.061   1_565  S
Cd114       O116   2.001       .  S
O115        C125   1.274       .  A
O116       Cd117   2.005   1_565  S
Cd117       O119   2.062   1_545  S
O118        C125   1.275       .  A
C120        C771   1.491       .  S
C120        O124   1.277       .  A
C121        C291   1.495       .  S
C123        C259   1.498       .  S
C125        C403   1.467       .  S
C126        C368   1.464       .  S
C126        O127   1.275       .  A
O128        C144   1.276       .  A
O128       Zn134   2.007       .  S
C129        C275   1.473       .  S
C129        O145   1.273       .  A
C129        O142   1.273       .  A
O130        C143   1.277       .  A
O130       Cd137   2.094       .  S
O131        C149   1.273       .  A
O131       Cd140   2.048       .  S
O132        C146   1.273       .  A
O132       Cd136   2.073       .  S
O133        C144   1.269       .  A
O133       Cd136   2.049       .  S
Zn134       O145   2.002       .  S
Zn134       O147   2.052       .  S
Zn134       O139   1.931       .  S
O135        C146   1.273       .  A
O135       Cd140   2.089       .  S
Cd136       O138   2.028       .  S
Cd136       O139   1.994       .  S
Cd137       O141   2.078       .  S
Cd137       O150   2.078       .  S
Cd137       O139   2.007       .  S
O138        C148   1.271       .  A
O139       Cd140   2.004       .  S
Cd140       O142   2.053       .  S
O141        C148   1.276       .  A
C143        C739   1.500       .  S
C143        O147   1.276       .  A
C144        C624   1.478       .  S
C146        C240   1.492       .  S
C148        C355   1.462       .  S
C149        C531   1.465       .  S
C149        O150   1.276       .  A
O151        C167   1.274       .  A
O151       Zn157   1.986       .  S
C152        C323   1.482       .  S
C152        O168   1.272       .  A
C152        O165   1.275       .  A
O153        C166   1.273       .  A
O153       Cd160   2.091       .  S
O154        C172   1.276       .  A
O154       Cd945   2.065   1_554  S
O155        C169   1.273       .  A
O155       Cd159   2.078       .  S
O156        C167   1.270       .  A
O156       Cd159   2.050   1_565  S
Zn157       O168   2.001       .  S
Zn157       O952   2.036       .  S
Zn157       O162   1.924       .  S
O158        C169   1.277       .  A
O158       Cd163   2.096       .  S
Cd159       O943   2.053       .  S
Cd159       O162   2.002   1_545  S
Cd160       O164   2.060   1_565  S
Cd160       O173   2.056   1_565  S
Cd160       O944   2.006   1_554  S
O161        C171   1.272       .  A
O161       Cd941   2.049   1_554  S
O162       Cd163   2.008   1_565  S
O162       Cd942   2.004       .  S
Cd163       O165   2.077   1_545  S
Cd163       O936   2.054       .  S
O164        C171   1.272       .  A
C166        C755   1.495       .  S
C166        O170   1.277       .  A
C167        C595   1.477       .  S
C169        C227   1.498       .  S
O170       Zn939   2.054   1_554  S
C171        C387   1.457       .  S
C172        C416   1.467       .  S
C172        O173   1.274       .  A
O174        C190   1.272       .  A
O174       Zn180   1.975       .  S
C175        C643   1.479       .  S
C175        O191   1.271       .  A
C175        O188   1.273       .  A
O176        C189   1.271       .  A
O176       Cd183   2.081       .  S
O177        C195   1.274       .  A
O177       Cd968   2.065   1_554  S
O178        C192   1.280       .  A
O178       Cd182   2.121       .  S
O179        C190   1.276       .  A
O179       Cd182   2.090       .  S
Zn180       O191   1.974       .  S
Zn180       O975   2.038       .  S
Zn180       O185   1.918       .  S
O181        C192   1.279       .  A
O181       Cd186   2.088       .  S
Cd182       O966   2.086       .  S
Cd182       O185   2.019       .  S
Cd183       O187   2.046       .  S
Cd183       O196   2.059       .  S
Cd183       O967   2.002       .  S
O184        C194   1.278       .  A
O184       Cd964   2.090   1_554  S
O185       Cd186   2.005       .  S
O185       Cd965   2.003       .  S
Cd186       O188   2.079       .  S
Cd186       O959   2.056       .  S
O187        C194   1.272       .  A
C189        C723   1.508       .  S
C189        O193   1.276       .  A
C190        C307   1.490       .  S
C192        C208   1.515       .  S
O193       Zn962   2.049   1_554  S
C194        C547   1.469       .  S
C195        C339   1.464       .  S
C195        O196   1.273       .  A
C197        H198   1.098       .  S
C197        C203   1.560       .  S
C197        C202   1.555       .  S
C197        C201   1.553       .  S
C199        H200   1.106       .  S
C199        C205   1.558       .  S
C199        C204   1.559       .  S
C199        C206   1.545       .  S
C201        C204   1.390       .  D
C201        C243   1.525       .  S
C202        C205   1.379       .  D
C202        C256   1.520       .  S
C203        C206   1.385       .  D
C203        C448   1.509       .  S
C204        C211   1.517       .  S
C205        C224   1.507       .  S
C206        C483   1.527       .  S
C207        C208   1.408       .  A
C207        C212   1.413       .  A
C207        H214   1.082       .  S
C208        C209   1.426       .  A
C209        C210   1.419       .  A
C209        C216   1.518       .  S
C210        C211   1.407       .  A
C210        H215   1.083       .  S
C211        C212   1.424       .  A
C212        C213   1.516       .  S
C213        F217   1.385       .  S
C213        F218   1.378       .  S
C213        F219   1.376       .  S
C216        F220   1.383       .  S
C216        F221   1.383       .  S
C216        F222   1.385       .  S
C223        C224   1.402       .  A
C223        C228   1.406       .  A
C223        H230   1.085       .  S
C224        C225   1.432       .  A
C225        C226   1.410       .  A
C225        C232   1.521       .  S
C226        C227   1.403       .  A
C226        H231   1.087       .  S
C227        C228   1.422       .  A
C228        C229   1.516       .  S
C229        F233   1.385       .  S
C229        F234   1.377       .  S
C229        F235   1.383       .  S
C232        F236   1.377       .  S
C232        F237   1.383       .  S
C232        F238   1.384       .  S
C239        C240   1.400       .  A
C239        C244   1.411       .  A
C239        H246   1.083       .  S
C240        C241   1.415       .  A
C241        C242   1.411       .  A
C241        C248   1.519       .  S
C242        C243   1.412       .  A
C242        H247   1.078       .  S
C243        C244   1.433       .  A
C244        C245   1.519       .  S
C245        F249   1.386       .  S
C245        F250   1.371       .  S
C245        F251   1.380       .  S
C248        F252   1.384       .  S
C248        F253   1.382       .  S
C248        F254   1.385       .  S
C255        C256   1.409       .  A
C255        C260   1.418       .  A
C255        H262   1.083       .  S
C256        C257   1.431       .  A
C257        C258   1.404       .  A
C257        C264   1.513       .  S
C258        C259   1.398       .  A
C258        H263   1.086       .  S
C259        C260   1.421       .  A
C260        C261   1.514       .  S
C261        F265   1.385       .  S
C261        F266   1.380       .  S
C261        F267   1.382       .  S
C264        F268   1.384       .  S
C264        F269   1.369       .  S
C264        F270   1.382       .  S
C271        C272   1.401       .  A
C271        C276   1.398       .  A
C271        H278   1.081       .  S
C272        C273   1.414       .  A
C273        C274   1.406       .  A
C273        C280   1.519       .  S
C274        C275   1.406       .  A
C274        H279   1.083       .  S
C275        C276   1.417       .  A
C276        C277   1.522       .  S
C277        F281   1.385       .  S
C277        F282   1.384       .  S
C277        F283   1.383       .  S
C280        F284   1.385       .  S
C280        F285   1.382       .  S
C280        F286   1.381       .  S
C287        C288   1.401       .  A
C287        C292   1.410       .  A
C287        H294   1.082       .  S
C288        C289   1.420       .  A
C289        C290   1.400       .  A
C289        C296   1.526       .  S
C290        C291   1.408       .  A
C290        H295   1.082       .  S
C291        C292   1.425       .  A
C292        C293   1.519       .  S
C293        F297   1.385   1_565  S
C293        F298   1.383   1_565  S
C293        F299   1.383   1_565  S
C296        F300   1.380       .  S
C296        F301   1.382       .  S
C296        F302   1.385       .  S
C303        C304   1.406       .  A
C303        C308   1.410       .  A
C303        H310   1.081       .  S
C304        C305   1.420       .  A
C305        C306   1.397       .  A
C305        C312   1.526       .  S
C306        C307   1.407       .  A
C306        H311   1.083       .  S
C307        C308   1.421       .  A
C308        C309   1.519       .  S
C309        F313   1.385       .  S
C309        F314   1.384       .  S
C309        F315   1.383       .  S
C312        F316   1.380       .  S
C312        F317   1.381       .  S
C312        F318   1.385       .  S
C319        C320   1.402       .  A
C319        C324   1.402       .  A
C319        H326   1.081       .  S
C320        C321   1.416       .  A
C321        C322   1.409       .  A
C321        C328   1.519       .  S
C322        C323   1.406       .  A
C322        H327   1.083       .  S
C323        C324   1.419       .  A
C324        C325   1.521       .  S
C325        F329   1.385       .  S
C325        F330   1.384       .  S
C325        F331   1.383       .  S
C328        F332   1.384       .  S
C328        F333   1.383       .  S
C328        F334   1.381       .  S
C335        C336   1.404       .  A
C335        C340   1.406       .  A
C335        H342   1.083       .  S
C336        C337   1.421       .  A
C337        C338   1.401       .  A
C337        C344   1.514       .  S
C338        C339   1.395       .  A
C338        H343   1.084       .  S
C339        C340   1.411       .  A
C340        C341   1.516       .  S
C341        F345   1.384       .  S
C341        F346   1.383       .  S
C341        F347   1.383       .  S
C344        F348   1.378       .  S
C344        F349   1.375       .  S
C344        F350   1.385       .  S
C351        C352   1.408       .  A
C351        C356   1.404       .  A
C351        H358   1.081       .  S
C352        C353   1.428       .  A
C353        C354   1.398       .  A
C353        C360   1.526       .  S
C354        C355   1.396       .  A
C354        H359   1.084       .  S
C355        C356   1.407       .  A
C356        C357   1.516       .  S
C357        F361   1.385       .  S
C357        F362   1.383       .  S
C357        F363   1.384       .  S
C360        F364   1.374       .  S
C360        F365   1.382       .  S
C360        F366   1.385       .  S
C367        C368   1.392       .  A
C367        C372   1.392       .  A
C367        H374   1.086       .  S
C368        C369   1.413       .  A
C369        C370   1.409       .  A
C369        C376   1.515       .  S
C370        C371   1.406       .  A
C370        H375   1.083       .  S
C371        C372   1.423       .  A
C372        C373   1.517       .  S
C373        F377   1.384       .  S
C373        F378   1.374       .  S
C373        F379   1.382       .  S
C376        F380   1.381       .  S
C376        F381   1.383   1_545  S
C376        F382   1.385       .  S
C383        C384   1.399       .  A
C383        C388   1.389       .  A
C383        H390   1.082       .  S
C384        C385   1.419       .  A
C385        C386   1.407       .  A
C385        C392   1.516       .  S
C386        C387   1.402       .  A
C386        H391   1.085       .  S
C387        C388   1.412       .  A
C388        C389   1.518       .  S
C389        F393   1.383       .  S
C389        F394   1.379       .  S
C389        F395   1.383       .  S
C392        F396   1.384       .  S
C392        F397   1.381       .  S
C392        F398   1.383       .  S
C399        C400   1.401       .  A
C399        C404   1.398       .  A
C399        H406   1.083       .  S
C400        C401   1.412       .  A
C401        C402   1.409       .  A
C401        C408   1.514       .  S
C402        C403   1.404       .  A
C402        H407   1.083       .  S
C403        C404   1.413       .  A
C404        C405   1.518       .  S
C405        F409   1.385       .  S
C405        F410   1.380       .  S
C405        F411   1.382       .  S
C408        F412   1.383       .  S
C408        F413   1.381       .  S
C408        F414   1.384       .  S
C415        C416   1.402       .  A
C415        C420   1.406       .  A
C415        H422   1.085       .  S
C416        C417   1.413       .  A
C417        C418   1.396       .  A
C417        C424   1.521       .  S
C418        C419   1.402       .  A
C418        H423   1.078       .  S
C419        C420   1.418       .  A
C420        C421   1.517       .  S
C421        F425   1.383       .  S
C421        F426   1.381       .  S
C421        F427   1.384       .  S
C424        F428   1.382       .  S
C424        F429   1.381       .  S
C424        F430   1.385       .  S
C431        C432   1.399       .  A
C431        C436   1.396       .  A
C431        H438   1.081       .  S
C432        C433   1.416       .  A
C433        C434   1.408       .  A
C433        C440   1.518       .  S
C434        C435   1.403       .  A
C434        H439   1.083       .  S
C435        C436   1.413       .  A
C436        C437   1.515       .  S
C437        F441   1.385       .  S
C437        F442   1.380       .  S
C437        F443   1.384       .  S
C440        F444   1.385       .  S
C440        F445   1.382       .  S
C440        F446   1.382       .  S
C447        C448   1.403       .  A
C447        C452   1.415       .  A
C447        H454   1.082       .  S
C448        C449   1.422       .  A
C449        C450   1.413       .  A
C449        C456   1.516       .  S
C450        C451   1.408       .  A
C450        H455   1.082       .  S
C451        C452   1.427       .  A
C452        C453   1.517       .  S
C453        F457   1.385       .  S
C453        F458   1.382       .  S
C453        F459   1.383       .  S
C456        F460   1.380       .  S
C456        F461   1.379       .  S
C456        F462   1.385       .  S
C463        C464   1.405       .  A
C463        C468   1.406       .  A
C463        H470   1.081       .  S
C464        C465   1.425       .  A
C465        C466   1.400       .  A
C465        C472   1.524       .  S
C466        C467   1.396       .  A
C466        H471   1.084       .  S
C467        C468   1.413       .  A
C468        C469   1.517       .  S
C469        F473   1.385   1_655  S
C469        F474   1.383   1_655  S
C469        F475   1.383   1_655  S
C472        F476   1.382       .  S
C472        F477   1.381       .  S
C472        F478   1.385       .  S
C479        C480   1.401       .  A
C479        C484   1.411       .  A
C479        H486   1.082       .  S
C480        C481   1.425       .  A
C481        C482   1.422       .  A
C481        C488   1.518       .  S
C482        C483   1.410       .  A
C482        H487   1.080       .  S
C483        C484   1.429       .  A
C484        C485   1.513       .  S
C485        F489   1.370       .  S
C485        F490   1.377       .  S
C485        F491   1.385       .  S
C488        F492   1.384       .  S
C488        F493   1.383       .  S
C488        F494   1.385       .  S
C495        C496   1.404       .  A
C495        C500   1.405       .  A
C495        H502   1.085       .  S
C496        C497   1.411       .  A
C497        C498   1.398       .  A
C497        C504   1.515       .  S
C498        C499   1.405       .  A
C498        H503   1.080       .  S
C499        C500   1.417       .  A
C500        C501   1.517       .  S
C501        F505   1.384       .  S
C501        F506   1.383       .  S
C501        F507   1.381       .  S
C504        F508   1.382       .  S
C504        F509   1.382       .  S
C504        F510   1.385       .  S
C511        C512   1.406       .  A
C511        C516   1.397       .  A
C511        H518   1.084       .  S
C512        C513   1.417       .  A
C513        C514   1.406       .  A
C513        C520   1.516       .  S
C514        C515   1.402       .  A
C514        H519   1.084       .  S
C515        C516   1.411       .  A
C516        C517   1.521       .  S
C517        F521   1.384       .  S
C517        F522   1.384       .  S
C517        F523   1.382       .  S
C520        F524   1.382       .  S
C520        F525   1.382       .  S
C520        F526   1.384       .  S
C527        C528   1.405       .  A
C527        C532   1.406       .  A
C527        H534   1.080       .  S
C528        C529   1.426       .  A
C529        C530   1.401       .  A
C529        C536   1.526       .  S
C530        C531   1.397       .  A
C530        H535   1.084       .  S
C531        C532   1.411       .  A
C532        C533   1.516       .  S
C533        F537   1.385       .  S
C533        F538   1.383       .  S
C533        F539   1.383       .  S
C536        F540   1.381       .  S
C536        F541   1.382       .  S
C536        F542   1.385       .  S
C543        C544   1.401       .  A
C543        C548   1.399       .  A
C543        H550   1.080       .  S
C544        C545   1.416       .  A
C545        C546   1.410       .  A
C545        C552   1.519       .  S
C546        C547   1.403       .  A
C546        H551   1.083       .  S
C547        C548   1.414       .  A
C548        C549   1.521       .  S
C549        F553   1.384       .  S
C549        F554   1.383       .  S
C549        F555   1.382       .  S
C552        F556   1.381       .  S
C552        F557   1.382       .  S
C552        F558   1.384       .  S
C559        C560   1.399       .  A
C559        C564   1.396       .  A
C559        H566   1.086       .  S
C560        C561   1.419       .  A
C561        C562   1.407       .  A
C561        C568   1.516       .  S
C562        C563   1.404       .  A
C562        H567   1.083       .  S
C563        C564   1.422       .  A
C564        C565   1.517       .  S
C565        F569   1.383       .  S
C565        F570   1.385       .  S
C565        F571   1.370       .  S
C568        F572   1.382       .  S
C568        F573   1.383   1_565  S
C568        F574   1.385       .  S
C575        C576   1.409       .  A
C575        C580   1.405       .  A
C575        H582   1.082       .  S
C576        C577   1.431       .  A
C577        C578   1.399       .  A
C577        C584   1.531       .  S
C578        C579   1.400       .  A
C578        H583   1.083       .  S
C579        C580   1.415       .  A
C580        C581   1.519   1_455  S
C581        F585   1.385       .  S
C581        F586   1.384       .  S
C581        F587   1.382       .  S
C584        F588   1.385       .  S
C584        F589   1.378       .  S
C584        F590   1.382       .  S
C591        C592   1.405       .  A
C591        C596   1.403       .  A
C591        H598   1.082       .  S
C592        C593   1.428       .  A
C593        C594   1.398       .  A
C593        C600   1.530       .  S
C594        C595   1.401       .  A
C594        H599   1.083       .  S
C595        C596   1.418       .  A
C596        C597   1.520       .  S
C597        F601   1.385       .  S
C597        F602   1.383   1_565  S
C597        F603   1.383   1_565  S
C600        F604   1.386       .  S
C600        F605   1.377       .  S
C600        F606   1.382       .  S
C607        C608   1.399       .  A
C607        C612   1.395       .  A
C607        H614   1.085       .  S
C608        C609   1.419       .  A
C609        C610   1.405       .  A
C609        C616   1.519       .  S
C610        C611   1.404       .  A
C610        H615   1.083       .  S
C611        C612   1.420       .  A
C612        C613   1.518       .  S
C613        F617   1.385       .  S
C613        F618   1.371       .  S
C613        F619   1.383       .  S
C616        F620   1.383       .  S
C616        F621   1.383   1_455  S
C616        F622   1.385       .  S
C623        C624   1.399       .  A
C623        C628   1.395       .  A
C623        H630   1.085       .  S
C624        C625   1.419       .  A
C625        C626   1.408       .  A
C625        C632   1.519       .  S
C626        C627   1.405       .  A
C626        H631   1.083       .  S
C627        C628   1.421       .  A
C628        C629   1.518       .  S
C629        F633   1.385       .  S
C629        F634   1.370       .  S
C629        F635   1.383       .  S
C632        F636   1.383       .  S
C632        F637   1.383       .  S
C632        F638   1.385       .  S
C639        C640   1.411       .  A
C639        C644   1.408       .  A
C639        H646   1.082       .  S
C640        C641   1.432       .  A
C641        C642   1.399       .  A
C641        C648   1.532       .  S
C642        C643   1.400       .  A
C642        H647   1.083       .  S
C643        C644   1.413       .  A
C644        C645   1.517       .  S
C645        F649   1.385       .  S
C645        F650   1.382       .  S
C645        F651   1.383       .  S
C648        F652   1.382       .  S
C648        F653   1.378       .  S
C648        F654   1.386       .  S
C655        C656   1.407       .  A
C655        C660   1.403       .  A
C655        H662   1.082       .  S
C656        C657   1.431       .  A
C657        C658   1.398       .  A
C657        C664   1.527       .  S
C658        C659   1.399       .  A
C658        H663   1.085       .  S
C659        C660   1.415       .  A
C660        C661   1.518       .  S
C661        F665   1.385   1_455  S
C661        F666   1.383   1_455  S
C661        F667   1.383   1_455  S
C664        F668   1.383       .  S
C664        F669   1.375       .  S
C664        F670   1.385       .  S
C671        C672   1.400       .  A
C671        C676   1.395       .  A
C671        H678   1.085       .  S
C672        C673   1.419       .  A
C673        C674   1.407       .  A
C673        C680   1.518       .  S
C674        C675   1.405       .  A
C674        H679   1.083       .  S
C675        C676   1.422       .  A
C676        C677   1.517       .  S
C677        F681   1.383       .  S
C677        F682   1.371       .  S
C677        F683   1.385       .  S
C680        F684   1.383   1_455  S
C680        F685   1.384       .  S
C680        F686   1.385       .  S
C687        C688   1.401       .  A
C687        C692   1.415       .  A
C687        H694   1.083       .  S
C688        C689   1.417       .  A
C689        C690   1.416       .  A
C689        C696   1.516       .  S
C690        C691   1.406       .  A
C690        H695   1.080       .  S
C691        C692   1.421       .  A
C692        C693   1.511       .  S
C693        F697   1.384       .  S
C693        F698   1.379       .  S
C693        F699   1.379       .  S
C696        F700   1.383       .  S
C696        F701   1.383       .  S
C696        F702   1.385       .  S
C703        C704   1.406       .  A
C703        C708   1.418       .  A
C703        H710   1.079       .  S
C704        C705   1.428       .  A
C705        C706   1.414       .  A
C705        C712   1.517       .  S
C706        C707   1.401       .  A
C706        H711   1.085       .  S
C707        C708   1.420       .  A
C708        C709   1.517       .  S
C709        F713   1.385       .  S
C709        F714   1.382       .  S
C709        F715   1.383       .  S
C712        F716   1.383       .  S
C712        F717   1.377       .  S
C712        F718   1.382       .  S
C719        C720   1.413       .  A
C719        C724   1.416       .  A
C719        H726   1.076       .  S
C720        C721   1.438       .  A
C721        C722   1.414       .  A
C721        C728   1.525       .  S
C722        C723   1.403       .  A
C722        H727   1.083       .  S
C723        C724   1.422       .  A
C724        C725   1.521       .  S
C725        F729   1.385       .  S
C725        F730   1.383       .  S
C725        F731   1.384       .  S
C728        F732   1.377       .  S
C728        F733   1.382       .  S
C728        F734   1.386       .  S
C735        C736   1.412       .  A
C735        C740   1.418       .  A
C735        H742   1.081       .  S
C736        C737   1.433       .  A
C737        C738   1.408       .  A
C737        C744   1.511       .  S
C738        C739   1.400       .  A
C738        H743   1.085       .  S
C739        C740   1.420       .  A
C740        C741   1.518       .  S
C741        F745   1.384       .  S
C741        F746   1.383       .  S
C741        F747   1.383       .  S
C744        F748   1.363       .  S
C744        F749   1.382       .  S
C744        F750   1.385       .  S
C751        C752   1.412       .  A
C751        C756   1.417       .  A
C751        H758   1.078       .  S
C752        C753   1.436       .  A
C753        C754   1.409       .  A
C753        C760   1.510       .  S
C754        C755   1.395       .  A
C754        H759   1.086       .  S
C755        C756   1.416       .  A
C756        C757   1.517       .  S
C757        F761   1.385       .  S
C757        F762   1.383       .  S
C757        F763   1.382       .  S
C760        F764   1.384       .  S
C760        F765   1.361       .  S
C760        F766   1.383       .  S
C767        C768   1.408       .  A
C767        C772   1.417       .  A
C767        H774   1.079       .  S
C768        C769   1.421       .  A
C769        C770   1.412       .  A
C769        C776   1.506       .  S
C770        C771   1.399       .  A
C770        H775   1.083       .  S
C771        C772   1.416       .  A
C772        C773   1.515       .  S
C773        F777   1.385       .  S
C773        F778   1.384       .  S
C773        F779   1.383       .  S
C776        F780   1.377       .  S
C776        F781   1.379       .  S
C776        F782   1.385       .  S
C783        H784   1.089       .  S
C783        C789   1.550       .  S
C783        C788   1.565       .  S
C783        C787   1.575       .  S
C785        H786   1.111       .  S
C785        C791   1.546       .  S
C785        C790   1.556       .  S
C785        C792   1.554       .  S
C787        C790   1.408       .  D
C787       C1502   1.549       .  S
C788        C791   1.381       .  D
C788       C1534   1.526       .  S
C789        C792   1.375       .  D
C789       C1473   1.516       .  S
C790       C1518   1.529       .  S
C791       C1550   1.513       .  S
C792       C1486   1.508       .  S
C793        C794   1.419       .  A
C793        C798   1.406       .  A
C793       C1457   1.484       .  S
C794        C795   1.394       .  A
C794       C1438   1.497       .  S
C795        C796   1.399       .  A
C795        H800   1.078       .  S
C796        C797   1.422       .  A
C796       C1409   1.480       .  S
C797        C798   1.402       .  A
C797       C1422   1.506       .  S
C798        H799   1.075       .  S
C801        C802   1.423       .  A
C801        C806   1.401       .  A
C801       C1358   1.499       .  S
C802        C803   1.400       .  A
C802       C1393   1.483       .  S
C803        C804   1.395       .  A
C803        H808   1.077       .  S
C804        C805   1.420       .  A
C804       C1374   1.492       .  S
C805        C806   1.402       .  A
C805       C1345   1.486       .  S
C806        H807   1.076       .  S
C809        C810   1.416       .  A
C809        C814   1.404       .  A
C809       C1310   1.484       .  S
C810        C811   1.397       .  A
C810       C1326   1.483       .  S
C811        C812   1.401       .  A
C811        H816   1.085       .  S
C812        C813   1.418       .  A
C812       C1294   1.483       .  S
C813        C814   1.403       .  A
C813       C1281   1.484       .  S
C814        H815   1.085       .  S
O817        C833   1.275       .  A
O817       Zn823   1.997       .  S
C818       C1390   1.478       .  S
C818        O834   1.276       .  A
C818        O831   1.269   1_455  A
O819        C832   1.276       .  A
O819       Cd826   2.106   1_455  S
O820        C838   1.273       .  A
O821        C835   1.278       .  A
O821       Cd825   2.100       .  S
O822        C833   1.272       .  A
O822       Cd825   2.062   1_455  S
Zn823       O834   2.004       .  S
Zn823       O828   1.932   1_456  S
O824        C835   1.275       .  A
O824       Cd829   2.105       .  S
Cd825       O828   2.001   1_556  S
Cd826       O830   2.079       .  S
Cd826       O839   2.082       .  S
O827        C837   1.275       .  A
O828       Cd829   2.009   1_554  S
Cd829       O831   2.047       .  S
O830        C837   1.276       .  A
C832       C1470   1.499       .  S
C832        O836   1.277       .  A
C833       C1454   1.482       .  S
C835       C1262   1.512       .  S
C837       C1249   1.469       .  S
C838       C1297   1.465       .  S
C838        O839   1.278       .  A
O840        C856   1.273       .  A
O840       Zn846   1.985       .  S
C841       C1441   1.479       .  S
C841        O857   1.273       .  A
C841        O854   1.273       .  A
O842        C855   1.277       .  A
O842       Cd849   2.110       .  S
O843        C861   1.274       .  A
O843       Cd852   2.061       .  S
O844        C858   1.278       .  A
O844       Cd848   2.093       .  S
O845        C856   1.270       .  A
O845       Cd848   2.057   1_455  S
Zn846       O857   1.994       .  S
Zn846       O859   2.037       .  S
Zn846       O851   1.929   1_455  S
O847        C858   1.275       .  A
O847       Cd852   2.091       .  S
Cd848       O850   2.054       .  S
Cd848       O851   2.009       .  S
Cd849       O853   2.082   1_455  S
Cd849       O862   2.073   1_455  S
Cd849       O851   2.007   1_455  S
O850        C860   1.273       .  A
O851       Cd852   2.005       .  S
Cd852       O854   2.068   1_655  S
O853        C860   1.277       .  A
C855       C1489   1.493       .  S
C855        O859   1.273       .  A
C856       C1361   1.478       .  S
C858       C1233   1.507       .  S
C860       C1278   1.474       .  S
C861       C1217   1.470       .  S
C861        O862   1.276       .  A
C863        C864   1.416       .  A
C863        C868   1.398       .  A
C863       C1246   1.491       .  S
C864        C865   1.400       .  A
C864       C1214   1.476       .  S
C865        C866   1.398       .  A
C865        H870   1.085       .  S
C866        C867   1.417       .  A
C866       C1182   1.484       .  S
C867        C868   1.400       .  A
C867       C1201   1.476       .  S
C868        H869   1.084       .  S
C871        C872   1.411       .  A
C871        C876   1.400       .  A
C871       C1153   1.474       .  S
C872        C873   1.399       .  A
C872       C1166   1.481       .  S
C873        C874   1.398       .  A
C873        H878   1.085       .  S
C874        C875   1.420       .  A
C874       C1118   1.481       .  S
C875        C876   1.402       .  A
C875       C1134   1.491       .  S
C876        H877   1.079       .  S
C879        C880   1.417       .  A
C879        C884   1.404       .  A
C879       C1102   1.486       .  S
C880        C881   1.401       .  A
C880       C1070   1.489       .  S
C881        C882   1.400       .  A
C881        H886   1.083       .  S
C882        C883   1.415       .  A
C882       C1054   1.481       .  S
C883        C884   1.403       .  A
C883       C1086   1.491       .  S
C884        H885   1.081       .  S
O887        C903   1.276       .  A
O887       Zn893   2.002       .  S
C888       C1342   1.486       .  S
C888        O904   1.276       .  A
C888        O901   1.272       .  A
O889        C902   1.275       .  A
O889       Cd896   2.087       .  S
O890        C908   1.273       .  A
O890       Cd899   2.057       .  S
O891        C905   1.278       .  A
O891       Cd895   2.112       .  S
O892        C903   1.276       .  A
O892       Cd895   2.085   1_565  S
Zn893       O904   2.011       .  S
Zn893       O906   2.060       .  S
Zn893       O898   1.938       .  S
O894        C905   1.278       .  A
O894       Cd899   2.093       .  S
Cd895       O897   2.069       .  S
Cd895       O898   2.017   1_545  S
Cd896       O900   2.076   1_565  S
Cd896       O909   2.052   1_565  S
Cd896       O898   2.004       .  S
O897        C907   1.274       .  A
O898       Cd899   2.007   1_565  S
Cd899       O901   2.071   1_545  S
O900        C907   1.275       .  A
C902       C1553   1.489       .  S
C902        O906   1.276       .  A
C903       C1073   1.497       .  S
C905       C1041   1.502       .  S
C907       C1185   1.471       .  S
C908       C1150   1.459       .  S
C908        O909   1.273       .  A
O910        C926   1.276       .  A
O910       Zn916   2.008       .  S
C911       C1057   1.482       .  S
C911        O927   1.274       .  A
C911        O924   1.275       .  A
O912        C925   1.278       .  A
O912       Cd919   2.093       .  S
O913        C931   1.274       .  A
O913       Cd922   2.056       .  S
O914        C928   1.274       .  A
O914       Cd918   2.082       .  S
O915        C926   1.269       .  A
O915       Cd918   2.046       .  S
Zn916       O927   2.014       .  S
Zn916       O929   2.057       .  S
Zn916       O921   1.937       .  S
O917        C928   1.275       .  A
O917       Cd922   2.098       .  S
Cd918       O920   2.028       .  S
Cd918       O921   1.995       .  S
Cd919       O923   2.082       .  S
Cd919       O932   2.079       .  S
Cd919       O921   2.009       .  S
O920        C930   1.271       .  A
O921       Cd922   2.008       .  S
Cd922       O924   2.066       .  S
O923        C930   1.276       .  A
C925       C1521   1.501       .  S
C925        O929   1.276       .  A
C926       C1406   1.475       .  S
C928       C1022   1.500       .  S
C930       C1137   1.463       .  S
C931       C1313   1.467       .  S
C931        O932   1.277       .  A
O933        C949   1.275       .  A
O933       Zn939   1.993       .  S
C934       C1105   1.486       .  S
C934        O950   1.273       .  A
C934        O947   1.276       .  A
O935        C948   1.274       .  A
O935       Cd942   2.093       .  S
O936        C954   1.274       .  A
O937        C951   1.275       .  A
O937       Cd941   2.088       .  S
O938        C949   1.271       .  A
O938       Cd941   2.054   1_565  S
Zn939       O950   2.006       .  S
Zn939       O944   1.926       .  S
O940        C951   1.278       .  A
O940       Cd945   2.105       .  S
Cd941       O944   2.005   1_545  S
Cd942       O946   2.065   1_565  S
Cd942       O955   2.054   1_565  S
O943        C953   1.272       .  A
O944       Cd945   2.012   1_565  S
Cd945       O947   2.079   1_545  S
O946        C953   1.273       .  A
C948       C1537   1.490       .  S
C948        O952   1.275       .  A
C949       C1377   1.479       .  S
C951       C1009   1.500       .  S
C953       C1169   1.460       .  S
C954       C1198   1.461       .  S
C954        O955   1.274       .  A
O956        C972   1.274       .  A
O956       Zn962   1.991       .  S
C957       C1425   1.482       .  S
C957        O973   1.274       .  A
C957        O970   1.273       .  A
O958        C971   1.272       .  A
O958       Cd965   2.088       .  S
O959        C977   1.273       .  A
O960        C974   1.281       .  A
O960       Cd964   2.127       .  S
O961        C972   1.277       .  A
O961       Cd964   2.095       .  S
Zn962       O973   1.989       .  S
Zn962       O967   1.924   1_556  S
O963        C974   1.279       .  A
O963       Cd968   2.083       .  S
Cd964       O967   2.024   1_556  S
Cd965       O969   2.051       .  S
Cd965       O978   2.056       .  S
O966        C976   1.278       .  A
O967       Cd968   2.007   1_554  S
Cd968       O970   2.080       .  S
O969        C976   1.273       .  A
C971       C1505   1.505       .  S
C971        O975   1.274       .  A
C972       C1089   1.496       .  S
C974        C990   1.516       .  S
C976       C1329   1.468       .  S
C977       C1121   1.460       .  S
C977        O978   1.273       .  A
C979        H980   1.100       .  S
C979        C985   1.563       .  S
C979        C984   1.559       .  S
C979        C983   1.554       .  S
C981        H982   1.108       .  S
C981        C987   1.562       .  S
C981        C986   1.561       .  S
C981        C988   1.542       .  S
C983        C986   1.390       .  D
C983       C1025   1.529       .  S
C984        C987   1.381       .  D
C984       C1038   1.527       .  S
C985        C988   1.383       .  D
C985       C1230   1.505       .  S
C986        C993   1.516       .  S
C987       C1006   1.511       .  S
C988       C1265   1.529       .  S
C989        C990   1.408       .  A
C989        C994   1.410       .  A
C989        H996   1.081       .  S
C990        C991   1.427       .  A
C991        C992   1.420       .  A
C991        C998   1.518       .  S
C992        C993   1.408       .  A
C992        H997   1.083       .  S
C993        C994   1.422       .  A
C994        C995   1.515       .  S
C995        F999   1.385       .  S
C995       F1000   1.378       .  S
C995       F1001   1.375       .  S
C998       F1002   1.383       .  S
C998       F1003   1.383       .  S
C998       F1004   1.385       .  S
C1005      C1006   1.403       .  A
C1005      C1010   1.406       .  A
C1005      H1012   1.083       .  S
C1006      C1007   1.433       .  A
C1007      C1008   1.413       .  A
C1007      C1014   1.521       .  S
C1008      C1009   1.403       .  A
C1008      H1013   1.086       .  S
C1009      C1010   1.420       .  A
C1010      C1011   1.513       .  S
C1011      F1015   1.385       .  S
C1011      F1016   1.378       .  S
C1011      F1017   1.382       .  S
C1014      F1018   1.376       .  S
C1014      F1019   1.383       .  S
C1014      F1020   1.384       .  S
C1021      C1022   1.402       .  A
C1021      C1026   1.414       .  A
C1021      H1028   1.083       .  S
C1022      C1023   1.417       .  A
C1023      C1024   1.413       .  A
C1023      C1030   1.519       .  S
C1024      C1025   1.412       .  A
C1024      H1029   1.078       .  S
C1025      C1026   1.433       .  A
C1026      C1027   1.519       .  S
C1027      F1031   1.385       .  S
C1027      F1032   1.372       .  S
C1027      F1033   1.380       .  S
C1030      F1034   1.384       .  S
C1030      F1035   1.382       .  S
C1030      F1036   1.385       .  S
C1037      C1038   1.411       .  A
C1037      C1042   1.421       .  A
C1037      H1044   1.083       .  S
C1038      C1039   1.433       .  A
C1039      C1040   1.406       .  A
C1039      C1046   1.513       .  S
C1040      C1041   1.398       .  A
C1040      H1045   1.085       .  S
C1041      C1042   1.422       .  A
C1042      C1043   1.516       .  S
C1043      F1047   1.385       .  S
C1043      F1048   1.382       .  S
C1043      F1049   1.382       .  S
C1046      F1050   1.384       .  S
C1046      F1051   1.369       .  S
C1046      F1052   1.383       .  S
C1053      C1054   1.401       .  A
C1053      C1058   1.401       .  A
C1053      H1060   1.080       .  S
C1054      C1055   1.415       .  A
C1055      C1056   1.406       .  A
C1055      C1062   1.517       .  S
C1056      C1057   1.407       .  A
C1056      H1061   1.084       .  S
C1057      C1058   1.420       .  A
C1058      C1059   1.521       .  S
C1059      F1063   1.385       .  S
C1059      F1064   1.383       .  S
C1059      F1065   1.383       .  S
C1062      F1066   1.384       .  S
C1062      F1067   1.382       .  S
C1062      F1068   1.383       .  S
C1069      C1070   1.402       .  A
C1069      C1074   1.411       .  A
C1069      H1076   1.080       .  S
C1070      C1071   1.420       .  A
C1071      C1072   1.401       .  A
C1071      C1078   1.526       .  S
C1072      C1073   1.408       .  A
C1072      H1077   1.082       .  S
C1073      C1074   1.425       .  A
C1074      C1075   1.519       .  S
C1075      F1079   1.385   1_565  S
C1075      F1080   1.383   1_565  S
C1075      F1081   1.383   1_565  S
C1078      F1082   1.381       .  S
C1078      F1083   1.382       .  S
C1078      F1084   1.385       .  S
C1085      C1086   1.406       .  A
C1085      C1090   1.413       .  A
C1085      H1092   1.083       .  S
C1086      C1087   1.419       .  A
C1087      C1088   1.400       .  A
C1087      C1094   1.526       .  S
C1088      C1089   1.408       .  A
C1088      H1093   1.082       .  S
C1089      C1090   1.423       .  A
C1090      C1091   1.519       .  S
C1091      F1095   1.385       .  S
C1091      F1096   1.384       .  S
C1091      F1097   1.383       .  S
C1094      F1098   1.381       .  S
C1094      F1099   1.381       .  S
C1094      F1100   1.385       .  S
C1101      C1102   1.402       .  A
C1101      C1106   1.403       .  A
C1101      H1108   1.081       .  S
C1102      C1103   1.415       .  A
C1103      C1104   1.409       .  A
C1103      C1110   1.518       .  S
C1104      C1105   1.407       .  A
C1104      H1109   1.083       .  S
C1105      C1106   1.421       .  A
C1106      C1107   1.522       .  S
C1107      F1111   1.385       .  S
C1107      F1112   1.384       .  S
C1107      F1113   1.383       .  S
C1110      F1114   1.384       .  S
C1110      F1115   1.382       .  S
C1110      F1116   1.381       .  S
C1117      C1118   1.404       .  A
C1117      C1122   1.404       .  A
C1117      H1124   1.083       .  S
C1118      C1119   1.419       .  A
C1119      C1120   1.400       .  A
C1119      C1126   1.515       .  S
C1120      C1121   1.395       .  A
C1120      H1125   1.084       .  S
C1121      C1122   1.411       .  A
C1122      C1123   1.516       .  S
C1123      F1127   1.384       .  S
C1123      F1128   1.383       .  S
C1123      F1129   1.383       .  S
C1126      F1130   1.379       .  S
C1126      F1131   1.375       .  S
C1126      F1132   1.385       .  S
C1133      C1134   1.409       .  A
C1133      C1138   1.405       .  A
C1133      H1140   1.081       .  S
C1134      C1135   1.427       .  A
C1135      C1136   1.398       .  A
C1135      C1142   1.526       .  S
C1136      C1137   1.397       .  A
C1136      H1141   1.084       .  S
C1137      C1138   1.408       .  A
C1138      C1139   1.516       .  S
C1139      F1143   1.385       .  S
C1139      F1144   1.383       .  S
C1139      F1145   1.383       .  S
C1142      F1146   1.374       .  S
C1142      F1147   1.381       .  S
C1142      F1148   1.386       .  S
C1149      C1150   1.393       .  A
C1149      C1154   1.391       .  A
C1149      H1156   1.086       .  S
C1150      C1151   1.411       .  A
C1151      C1152   1.407       .  A
C1151      C1158   1.514       .  S
C1152      C1153   1.405       .  A
C1152      H1157   1.083       .  S
C1153      C1154   1.422       .  A
C1154      C1155   1.518       .  S
C1155      F1159   1.384       .  S
C1155      F1160   1.375       .  S
C1155      F1161   1.382       .  S
C1158      F1162   1.381       .  S
C1158      F1163   1.383   1_545  S
C1158      F1164   1.385       .  S
C1165      C1166   1.400       .  A
C1165      C1170   1.392       .  A
C1165      H1172   1.082       .  S
C1166      C1167   1.419       .  A
C1167      C1168   1.407       .  A
C1167      C1174   1.517       .  S
C1168      C1169   1.402       .  A
C1168      H1173   1.085       .  S
C1169      C1170   1.414       .  A
C1170      C1171   1.519       .  S
C1171      F1175   1.383       .  S
C1171      F1176   1.380       .  S
C1171      F1177   1.382       .  S
C1174      F1178   1.383       .  S
C1174      F1179   1.381       .  S
C1174      F1180   1.383       .  S
C1181      C1182   1.402       .  A
C1181      C1186   1.401       .  A
C1181      H1188   1.082       .  S
C1182      C1183   1.413       .  A
C1183      C1184   1.410       .  A
C1183      C1190   1.514       .  S
C1184      C1185   1.403       .  A
C1184      H1189   1.083       .  S
C1185      C1186   1.414       .  A
C1186      C1187   1.519       .  S
C1187      F1191   1.385       .  S
C1187      F1192   1.382       .  S
C1187      F1193   1.382       .  S
C1190      F1194   1.383       .  S
C1190      F1195   1.380       .  S
C1190      F1196   1.385       .  S
C1197      C1198   1.402       .  A
C1197      C1202   1.405       .  A
C1197      H1204   1.085       .  S
C1198      C1199   1.411       .  A
C1199      C1200   1.394       .  A
C1199      C1206   1.521       .  S
C1200      C1201   1.402       .  A
C1200      H1205   1.078       .  S
C1201      C1202   1.417       .  A
C1202      C1203   1.516       .  S
C1203      F1207   1.383       .  S
C1203      F1208   1.381       .  S
C1203      F1209   1.384       .  S
C1206      F1210   1.382       .  S
C1206      F1211   1.383       .  S
C1206      F1212   1.385       .  S
C1213      C1214   1.398       .  A
C1213      C1218   1.396       .  A
C1213      H1220   1.080       .  S
C1214      C1215   1.414       .  A
C1215      C1216   1.407       .  A
C1215      C1222   1.518       .  S
C1216      C1217   1.404       .  A
C1216      H1221   1.083       .  S
C1217      C1218   1.414       .  A
C1218      C1219   1.514       .  S
C1219      F1223   1.385       .  S
C1219      F1224   1.380       .  S
C1219      F1225   1.383       .  S
C1222      F1226   1.384       .  S
C1222      F1227   1.383       .  S
C1222      F1228   1.382       .  S
C1229      C1230   1.403       .  A
C1229      C1234   1.414       .  A
C1229      H1236   1.081       .  S
C1230      C1231   1.420       .  A
C1231      C1232   1.411       .  A
C1231      C1238   1.516       .  S
C1232      C1233   1.408       .  A
C1232      H1237   1.082       .  S
C1233      C1234   1.427       .  A
C1234      C1235   1.519       .  S
C1235      F1239   1.385       .  S
C1235      F1240   1.382       .  S
C1235      F1241   1.383       .  S
C1238      F1242   1.380       .  S
C1238      F1243   1.379       .  S
C1238      F1244   1.385       .  S
C1245      C1246   1.407       .  A
C1245      C1250   1.409       .  A
C1245      H1252   1.081       .  S
C1246      C1247   1.425       .  A
C1247      C1248   1.399       .  A
C1247      C1254   1.523       .  S
C1248      C1249   1.395       .  A
C1248      H1253   1.084       .  S
C1249      C1250   1.414       .  A
C1250      C1251   1.517       .  S
C1251      F1255   1.385   1_655  S
C1251      F1256   1.383   1_655  S
C1251      F1257   1.383   1_655  S
C1254      F1258   1.381       .  S
C1254      F1259   1.381       .  S
C1254      F1260   1.385       .  S
C1261      C1262   1.400       .  A
C1261      C1266   1.411       .  A
C1261      H1268   1.082       .  S
C1262      C1263   1.426       .  A
C1263      C1264   1.424       .  A
C1263      C1270   1.518       .  S
C1264      C1265   1.410       .  A
C1264      H1269   1.080       .  S
C1265      C1266   1.428       .  A
C1266      C1267   1.511       .  S
C1267      F1271   1.370       .  S
C1267      F1272   1.377       .  S
C1267      F1273   1.385       .  S
C1270      F1274   1.384       .  S
C1270      F1275   1.383       .  S
C1270      F1276   1.385       .  S
C1277      C1278   1.404       .  A
C1277      C1282   1.406       .  A
C1277      H1284   1.085       .  S
C1278      C1279   1.412       .  A
C1279      C1280   1.399       .  A
C1279      C1286   1.514       .  S
C1280      C1281   1.404       .  A
C1280      H1285   1.081       .  S
C1281      C1282   1.418       .  A
C1282      C1283   1.518       .  S
C1283      F1287   1.383       .  S
C1283      F1288   1.383       .  S
C1283      F1289   1.381       .  S
C1286      F1290   1.382       .  S
C1286      F1291   1.382       .  S
C1286      F1292   1.385       .  S
C1293      C1294   1.406       .  A
C1293      C1298   1.396       .  A
C1293      H1300   1.084       .  S
C1294      C1295   1.417       .  A
C1295      C1296   1.407       .  A
C1295      C1302   1.516       .  S
C1296      C1297   1.403       .  A
C1296      H1301   1.084       .  S
C1297      C1298   1.411       .  A
C1298      C1299   1.521       .  S
C1299      F1303   1.385       .  S
C1299      F1304   1.383       .  S
C1299      F1305   1.382       .  S
C1302      F1306   1.382       .  S
C1302      F1307   1.382       .  S
C1302      F1308   1.384       .  S
C1309      C1310   1.405       .  A
C1309      C1314   1.407       .  A
C1309      H1316   1.081       .  S
C1310      C1311   1.424       .  A
C1311      C1312   1.400       .  A
C1311      C1318   1.523       .  S
C1312      C1313   1.397       .  A
C1312      H1317   1.085       .  S
C1313      C1314   1.411       .  A
C1314      C1315   1.516       .  S
C1315      F1319   1.384       .  S
C1315      F1320   1.383       .  S
C1315      F1321   1.383       .  S
C1318      F1322   1.382       .  S
C1318      F1323   1.379       .  S
C1318      F1324   1.385       .  S
C1325      C1326   1.402       .  A
C1325      C1330   1.397       .  A
C1325      H1332   1.079       .  S
C1326      C1327   1.416       .  A
C1327      C1328   1.411       .  A
C1327      C1334   1.518       .  S
C1328      C1329   1.404       .  A
C1328      H1333   1.083       .  S
C1329      C1330   1.412       .  A
C1330      C1331   1.521       .  S
C1331      F1335   1.385       .  S
C1331      F1336   1.383       .  S
C1331      F1337   1.382       .  S
C1334      F1338   1.381       .  S
C1334      F1339   1.382       .  S
C1334      F1340   1.384       .  S
C1341      C1342   1.401       .  A
C1341      C1346   1.398       .  A
C1341      H1348   1.085       .  S
C1342      C1343   1.421       .  A
C1343      C1344   1.409       .  A
C1343      C1350   1.517       .  S
C1344      C1345   1.403       .  A
C1344      H1349   1.083       .  S
C1345      C1346   1.422       .  A
C1346      C1347   1.517       .  S
C1347      F1351   1.383       .  S
C1347      F1352   1.385       .  S
C1347      F1353   1.370       .  S
C1350      F1354   1.382       .  S
C1350      F1355   1.383   1_565  S
C1350      F1356   1.385       .  S
C1357      C1358   1.410       .  A
C1357      C1362   1.406       .  A
C1357      H1364   1.082       .  S
C1358      C1359   1.433       .  A
C1359      C1360   1.399       .  A
C1359      C1366   1.530       .  S
C1360      C1361   1.399       .  A
C1360      H1365   1.083       .  S
C1361      C1362   1.415       .  A
C1362      C1363   1.520       .  S
C1363      F1367   1.385   1_455  S
C1363      F1368   1.384   1_455  S
C1363      F1369   1.383   1_455  S
C1366      F1370   1.386       .  S
C1366      F1371   1.376       .  S
C1366      F1372   1.382       .  S
C1373      C1374   1.406       .  A
C1373      C1378   1.405       .  A
C1373      H1380   1.082       .  S
C1374      C1375   1.430       .  A
C1375      C1376   1.398       .  A
C1375      C1382   1.530       .  S
C1376      C1377   1.400       .  A
C1376      H1381   1.083       .  S
C1377      C1378   1.417       .  A
C1378      C1379   1.519       .  S
C1379      F1383   1.385       .  S
C1379      F1384   1.383   1_565  S
C1379      F1385   1.383   1_565  S
C1382      F1386   1.385       .  S
C1382      F1387   1.377       .  S
C1382      F1388   1.382       .  S
C1389      C1390   1.399       .  A
C1389      C1394   1.393       .  A
C1389      H1396   1.086       .  S
C1390      C1391   1.420       .  A
C1391      C1392   1.408       .  A
C1391      C1398   1.520       .  S
C1392      C1393   1.406       .  A
C1392      H1397   1.083       .  S
C1393      C1394   1.421       .  A
C1394      C1395   1.517       .  S
C1395      F1399   1.385       .  S
C1395      F1400   1.368       .  S
C1395      F1401   1.383       .  S
C1398      F1402   1.383       .  S
C1398      F1403   1.383   1_455  S
C1398      F1404   1.385       .  S
C1405      C1406   1.398       .  A
C1405      C1410   1.395       .  A
C1405      H1412   1.085       .  S
C1406      C1407   1.418       .  A
C1407      C1408   1.406       .  A
C1407      C1414   1.519       .  S
C1408      C1409   1.405       .  A
C1408      H1413   1.083       .  S
C1409      C1410   1.421       .  A
C1410      C1411   1.518       .  S
C1411      F1415   1.384       .  S
C1411      F1416   1.370       .  S
C1411      F1417   1.383       .  S
C1414      F1418   1.382       .  S
C1414      F1419   1.384       .  S
C1414      F1420   1.385       .  S
C1421      C1422   1.412       .  A
C1421      C1426   1.410       .  A
C1421      H1428   1.082       .  S
C1422      C1423   1.432       .  A
C1423      C1424   1.400       .  A
C1423      C1430   1.529       .  S
C1424      C1425   1.399       .  A
C1424      H1429   1.083       .  S
C1425      C1426   1.414       .  A
C1426      C1427   1.517       .  S
C1427      F1431   1.385       .  S
C1427      F1432   1.382       .  S
C1427      F1433   1.383       .  S
C1430      F1434   1.382       .  S
C1430      F1435   1.378       .  S
C1430      F1436   1.386       .  S
C1437      C1438   1.407       .  A
C1437      C1442   1.405       .  A
C1437      H1444   1.081       .  S
C1438      C1439   1.431       .  A
C1439      C1440   1.401       .  A
C1439      C1446   1.528       .  S
C1440      C1441   1.400       .  A
C1440      H1445   1.084       .  S
C1441      C1442   1.415       .  A
C1442      C1443   1.518       .  S
C1443      F1447   1.385   1_455  S
C1443      F1448   1.382   1_455  S
C1443      F1449   1.383       .  S
C1446      F1450   1.383       .  S
C1446      F1451   1.379       .  S
C1446      F1452   1.385       .  S
C1453      C1454   1.402       .  A
C1453      C1458   1.398       .  A
C1453      H1460   1.084       .  S
C1454      C1455   1.420       .  A
C1455      C1456   1.407       .  A
C1455      C1462   1.519       .  S
C1456      C1457   1.403       .  A
C1456      H1461   1.083       .  S
C1457      C1458   1.420       .  A
C1458      C1459   1.520       .  S
C1459      F1463   1.380       .  S
C1459      F1464   1.375       .  S
C1459      F1465   1.385       .  S
C1462      F1466   1.383   1_455  S
C1462      F1467   1.383       .  S
C1462      F1468   1.385       .  S
C1469      C1470   1.403       .  A
C1469      C1474   1.418       .  A
C1469      H1476   1.083       .  S
C1470      C1471   1.417       .  A
C1471      C1472   1.416       .  A
C1471      C1478   1.516       .  S
C1472      C1473   1.405       .  A
C1472      H1477   1.080       .  S
C1473      C1474   1.423       .  A
C1474      C1475   1.512       .  S
C1475      F1479   1.385       .  S
C1475      F1480   1.379       .  S
C1475      F1481   1.379       .  S
C1478      F1482   1.383       .  S
C1478      F1483   1.383       .  S
C1478      F1484   1.384       .  S
C1485      C1486   1.405       .  A
C1485      C1490   1.414       .  A
C1485      H1492   1.080       .  S
C1486      C1487   1.428       .  A
C1487      C1488   1.412       .  A
C1487      C1494   1.517       .  S
C1488      C1489   1.400       .  A
C1488      H1493   1.085       .  S
C1489      C1490   1.417       .  A
C1490      C1491   1.517       .  S
C1491      F1495   1.384       .  S
C1491      F1496   1.383       .  S
C1491      F1497   1.383       .  S
C1494      F1498   1.383       .  S
C1494      F1499   1.376       .  S
C1494      F1500   1.382       .  S
C1501      C1502   1.413       .  A
C1501      C1506   1.415       .  A
C1501      H1508   1.076       .  S
C1502      C1503   1.436       .  A
C1503      C1504   1.414       .  A
C1503      C1510   1.525       .  S
C1504      C1505   1.404       .  A
C1504      H1509   1.084       .  S
C1505      C1506   1.421       .  A
C1506      C1507   1.520       .  S
C1507      F1511   1.385       .  S
C1507      F1512   1.383       .  S
C1507      F1513   1.384       .  S
C1510      F1514   1.377       .  S
C1510      F1515   1.382       .  S
C1510      F1516   1.386       .  S
C1517      C1518   1.412       .  A
C1517      C1522   1.418       .  A
C1517      H1524   1.081       .  S
C1518      C1519   1.433       .  A
C1519      C1520   1.408       .  A
C1519      C1526   1.511       .  S
C1520      C1521   1.400       .  A
C1520      H1525   1.085       .  S
C1521      C1522   1.421       .  A
C1522      C1523   1.518       .  S
C1523      F1527   1.385       .  S
C1523      F1528   1.382       .  S
C1523      F1529   1.383       .  S
C1526      F1530   1.362       .  S
C1526      F1531   1.382       .  S
C1526      F1532   1.384       .  S
C1533      C1534   1.412       .  A
C1533      C1538   1.416       .  A
C1533      H1540   1.079       .  S
C1534      C1535   1.435       .  A
C1535      C1536   1.407       .  A
C1535      C1542   1.511       .  S
C1536      C1537   1.394       .  A
C1536      H1541   1.086       .  S
C1537      C1538   1.414       .  A
C1538      C1539   1.516       .  S
C1539      F1543   1.385       .  S
C1539      F1544   1.384       .  S
C1539      F1545   1.382       .  S
C1542      F1546   1.384       .  S
C1542      F1547   1.360       .  S
C1542      F1548   1.383       .  S
C1549      C1550   1.407       .  A
C1549      C1554   1.416       .  A
C1549      H1556   1.081       .  S
C1550      C1551   1.420       .  A
C1551      C1552   1.411       .  A
C1551      C1558   1.506       .  S
C1552      C1553   1.399       .  A
C1552      H1557   1.084       .  S
C1553      C1554   1.416       .  A
C1554      C1555   1.515       .  S
C1555      F1559   1.385       .  S
C1555      F1560   1.383       .  S
C1555      F1561   1.383       .  S
C1558      F1562   1.376       .  S
C1558      F1563   1.380       .  S
C1558      F1564   1.385       .  S
