geometry optimzed in LAMMPS
_audit_creation_date              2020-11-30 
_audit_creation_method            'lammps2cif' 
_symmetry_space_group_name_H-M    'P1' 
_symmetry_Int_Tables_number       1 
_symmetry_cell_setting            triclinic 
loop_ 
_symmetry_equiv_pos_as_xyz 
  x,y,z 
_cell_length_a                    26.76219021 
_cell_length_b                    26.930491081996372 
_cell_length_c                    43.79913690439611 
_cell_angle_alpha                 90.35984411414432 
_cell_angle_beta                  90.05563027059026 
_cell_angle_gamma                 89.79379276221543 
loop_ 
_atom_site_label 
_atom_site_type_symbol 
_atom_site_fract_x 
_atom_site_fract_y 
_atom_site_fract_z 
_atom_site_charge 
C1          C  0.48375789  0.24150730  0.39329105     0.85900
C2          C  0.44021513  0.27948776  0.39653011    -0.54300
C3          C  0.44466834  0.32042632  0.37844720     0.08800
C4          C  0.49175526  0.31955452  0.35840667     0.19800
C5          C  0.48433785  0.22980282  0.35880222    -0.55100
C6          C  0.48915080  0.27028654  0.34026492     0.08900
C7          C  0.53058265  0.27300695  0.39948358    -0.54600
C8          C  0.53535642  0.31298668  0.38097147     0.09500
H9          H  0.40822178  0.27596014  0.41134839     0.14000
H10         H  0.49419744  0.35265650  0.34387649    -0.00300
H11         H  0.48060891  0.19236076  0.34989438     0.14300
H12         H  0.55789701  0.26438345  0.41704313     0.14100
C13         C  0.21522288  0.51936500  0.38519630     0.85900
C14         C  0.25011001  0.56443852  0.38989298    -0.54300
C15         C  0.29170783  0.56321823  0.37223514     0.08800
C16         C  0.29615771  0.51693798  0.35196173     0.19800
C17         C  0.20528574  0.51736852  0.35044765    -0.55100
C18         C  0.24786903  0.51570979  0.33295296     0.08900
C19         C  0.24986321  0.47464077  0.39157006    -0.54600
C20         C  0.29152457  0.47302826  0.37374934     0.09500
H21         H  0.24457830  0.59404988  0.40640787     0.14000
H22         H  0.33114697  0.51558182  0.33840005    -0.00300
H23         H  0.16794643  0.51824995  0.34079413     0.14300
H24         H  0.24274830  0.44709752  0.40901092     0.14100
C25         C  0.76913305  0.50299986  0.38989116     0.85900
C26         C  0.73415561  0.45910153  0.39615542    -0.54300
C27         C  0.69403801  0.45665165  0.37712507     0.08800
C28         C  0.69249315  0.49753908  0.35297351     0.19800
C29         C  0.78328188  0.49714147  0.35564419    -0.55100
C30         C  0.74289314  0.49447514  0.33645833     0.08900
C31         C  0.73507485  0.54919777  0.39034194    -0.54600
C32         C  0.69528901  0.54641684  0.37091102     0.09500
H33         H  0.74009574  0.43270133  0.41446841     0.14000
H34         H  0.65960893  0.49491944  0.33754003    -0.00300
H35         H  0.82080635  0.49838460  0.34658131     0.14300
H36         H  0.74122428  0.58064688  0.40547278     0.14100
C37         C  0.50359377  0.77532541  0.38732474     0.85900
C38         C  0.54798153  0.73827365  0.38874169    -0.54300
C39         C  0.54339960  0.69854553  0.36941901     0.08800
C40         C  0.49521374  0.69885796  0.35060227     0.19800
C41         C  0.50001723  0.78896680  0.35325766    -0.55100
C42         C  0.49536856  0.74893448  0.33409416     0.08900
C43         C  0.45788799  0.74229848  0.39365729    -0.54600
C44         C  0.45352915  0.70283327  0.37431058     0.09500
H45         H  0.57951050  0.74087196  0.40413985     0.14000
H46         H  0.49132625  0.66645780  0.33495823     0.05500
H47         H  0.50312816  0.82676668  0.34500043     0.14300
H48         H  0.43113750  0.74939292  0.41181267     0.14100
C49         C  0.49833958  0.22574703  0.15346471     0.85900
C50         C  0.54696839  0.25557536  0.15113265    -0.54300
C51         C  0.54806555  0.29694028  0.16901391     0.08800
C52         C  0.50107113  0.30449969  0.18846513     0.19800
C53         C  0.49406015  0.21440614  0.18825055    -0.55100
C54         C  0.49529713  0.25613641  0.20667258     0.08900
C55         C  0.45625567  0.26340534  0.14749243    -0.54600
C56         C  0.45737792  0.30411819  0.16602417     0.09500
H57         H  0.57761068  0.24545011  0.13604620     0.14000
H58         H  0.50169983  0.33909269  0.20230863    -0.00300
H59         H  0.49238355  0.17747725  0.19768207     0.14300
H60         H  0.42855381  0.25850056  0.12962305     0.14100
C61         C  0.23389433  0.50358174  0.14667140     0.85900
C62         C  0.27019712  0.45879663  0.14475342    -0.54300
C63         C  0.31080878  0.46236288  0.16345625     0.08800
C64         C  0.31193581  0.51025506  0.18244873     0.19800
C65         C  0.22110931  0.50815658  0.18086379    -0.55100
C66         C  0.26177920  0.51147732  0.19985134     0.08900
C67         C  0.26781181  0.54826783  0.13990978    -0.54600
C68         C  0.30817223  0.55184313  0.15872917     0.09500
H69         H  0.26668152  0.42764114  0.12921370     0.14000
H70         H  0.34544224  0.51232896  0.19718648    -0.00300
H71         H  0.18290811  0.50861135  0.18918278     0.14300
H72         H  0.26083180  0.57468309  0.12175595     0.14100
C73         C  0.77361302  0.49321652  0.15117327     0.85900
C74         C  0.73695427  0.53660407  0.14620609    -0.54300
C75         C  0.69615266  0.53590669  0.16486815     0.08800
C76         C  0.69583673  0.49243225  0.18719238     0.19800
C77         C  0.78655055  0.49655506  0.18572988    -0.55100
C78         C  0.74550712  0.49656189  0.20437108     0.08900
C79         C  0.74166082  0.44607357  0.14851702    -0.54600
C80         C  0.70120627  0.44588104  0.16729863     0.09500
H81         H  0.74302554  0.56562516  0.12950930     0.14000
H82         H  0.66261846  0.49159931  0.20233637    -0.00300
H83         H  0.82372206  0.49902419  0.19528249     0.14300
H84         H  0.75015957  0.41554178  0.13302201     0.14100
C85         C  0.51157900  0.77226672  0.14857789     0.85900
C86         C  0.46519869  0.74003183  0.14275027    -0.54300
C87         C  0.46074760  0.70093851  0.16203482     0.08800
C88         C  0.50340178  0.69606166  0.18512901     0.19800
C89         C  0.51003769  0.78594257  0.18293016    -0.55100
C90         C  0.50558247  0.74609449  0.20194604     0.08900
C91         C  0.55499172  0.73411217  0.14624727    -0.54600
C92         C  0.55093449  0.69496588  0.16573010     0.09500
H93         H  0.43858203  0.74685122  0.12449821     0.14000
H94         H  0.49931777  0.66364085  0.20048226    -0.00300
H95         H  0.51434816  0.82353460  0.19156283     0.14300
H96         H  0.58634724  0.73575972  0.13081494     0.14100
O97         O  0.94820684  0.53969903  0.05148939    -0.72400
O98         O  0.04033464  0.55231847  0.49006632    -0.72600
O99         O  0.94055894  0.54849895  0.49555946    -0.72400
O100        O  0.04842096  0.54233526  0.05090210    -0.72500
O101        O  0.04988417  0.46202935  0.04771343    -0.72400
O102        O  0.94645202  0.46843444  0.48972645    -0.72400
O103        O  0.04587333  0.47206554  0.48736915    -0.72400
O104        O  0.94948981  0.45915825  0.04742368    -0.72600
V105        V  0.99751684  0.54252851  0.02047602     1.35200
V106        V  0.99976811  0.46518519  0.01709079     1.35200
C107        C  0.93201271  0.49795223  0.05982937     0.76900
C108        C  0.05834902  0.51404847  0.47720652     0.76900
C109        C  0.92589444  0.50904594  0.48265166     0.76800
C110        C  0.06650262  0.50141040  0.05981943     0.76800
O111        O  0.54345405  0.95936638  0.48642427    -0.72400
O112        O  0.53768682  0.05618900  0.04840521    -0.72600
O113        O  0.54603605  0.95641970  0.04968493    -0.72400
O114        O  0.53351963  0.05865513  0.48623768    -0.72500
O115        O  0.45281860  0.05251718  0.48879866    -0.72400
O116        O  0.46549799  0.94687648  0.04940534    -0.72400
O117        O  0.45750091  0.04586392  0.05286530    -0.72400
O118        O  0.46269432  0.95321374  0.48707630    -0.72600
V119        V  0.53836338  0.00477465  0.01848314     1.35200
V120        V  0.46081449  0.99857054  0.02037307     1.35200
C121        C  0.50427136  0.93903300  0.47626268     0.76900
C122        C  0.49698619  0.06776542  0.06123725     0.76900
C123        C  0.50776012  0.93456043  0.05984500     0.76800
C124        C  0.49082147  0.07283449  0.47733460     0.76800
C125        C  0.47289925  0.89060521  0.10456623    -0.26900
C126        C  0.51161538  0.89549457  0.08335486    -0.15000
C127        C  0.55250251  0.86262502  0.08460385     0.35600
C128        C  0.55300343  0.82463175  0.10648390    -0.26400
C129        C  0.51312021  0.81774645  0.12726464    -0.15600
C130        C  0.47337474  0.85327991  0.12663039     0.36700
N131        N  0.43289652  0.85352063  0.14809684    -0.89800
H132        H  0.44186627  0.91659173  0.10423598     0.17800
H133        H  0.58507321  0.80063882  0.10638225     0.17800
N134        N  0.59282161  0.86693493  0.06307987    -0.88900
H135        H  0.44664326  0.85922163  0.17011649     0.35200
H136        H  0.41309836  0.82034522  0.14700287     0.40300
H137        H  0.57837682  0.85923556  0.04137750     0.39900
H138        H  0.62041210  0.84020678  0.06716796     0.34800
C139        C  0.86676689  0.49787726  0.13654533    -0.26900
C140        C  0.81623945  0.49339136  0.12777198    -0.15000
C141        C  0.80521090  0.48935237  0.09613848     0.35600
C142        C  0.84382884  0.48955714  0.07455481    -0.26400
C143        C  0.89360648  0.49479475  0.08359067    -0.15600
C144        C  0.90534675  0.49909477  0.11493063     0.36700
N145        N  0.95584459  0.50427201  0.12579592    -0.89800
H146        H  0.87749629  0.50105171  0.16015808     0.17800
H147        H  0.83472036  0.48661078  0.05047735     0.17800
N148        N  0.75455035  0.48554713  0.08573817    -0.88900
H149        H  0.95876726  0.53916160  0.13623430     0.35200
H150        H  0.98179169  0.50349625  0.10803611     0.40300
H151        H  0.75104552  0.45259389  0.07317299     0.39900
H152        H  0.74735866  0.51523051  0.07108462     0.34800
C153        C  0.67458907  0.62521324  0.16780071    -0.26900
C154        C  0.65826983  0.57599782  0.16545676    -0.15000
C155        C  0.60663439  0.56573551  0.16526693     0.35600
C156        C  0.57236385  0.60538454  0.16597872    -0.26400
C157        C  0.58876060  0.65480597  0.16751057    -0.15600
C158        C  0.64067575  0.66467434  0.16988527     0.36700
N159        N  0.66047862  0.71358865  0.17538655    -0.89800
H160        H  0.71424525  0.63296795  0.16928488     0.17800
H161        H  0.53268477  0.59773741  0.16459913     0.17800
N162        N  0.58922944  0.51532903  0.16377877    -0.88900
H163        H  0.68154959  0.71204757  0.19549671     0.35200
H164        H  0.63240525  0.73942146  0.17998688     0.40300
H165        H  0.60035755  0.50044288  0.14275738     0.39900
H166        H  0.55017492  0.51420792  0.16419011     0.34800
C167        C  0.11757460  0.54302202  0.10041384    -0.26900
C168        C  0.10635089  0.49980710  0.08363605    -0.15000
C169        C  0.13383651  0.45601790  0.08975213     0.35600
C170        C  0.17327063  0.45733232  0.11093248    -0.26400
C171        C  0.18725338  0.50148886  0.12609389    -0.15600
C172        C  0.15675865  0.54397114  0.12182585     0.36700
N173        N  0.16558045  0.58846713  0.13908259    -0.89800
H174        H  0.09588359  0.57656112  0.09690614     0.17800
H175        H  0.19191301  0.42277950  0.11570454     0.17800
N176        N  0.12253496  0.41028719  0.07410689    -0.88900
H177        H  0.13304059  0.59707503  0.15123960     0.35200
H178        H  0.17226819  0.61730128  0.12376372     0.40300
H179        H  0.08835128  0.39764459  0.08251290     0.39900
H180        H  0.14882542  0.38279014  0.07931051     0.34800
C181        C  0.34334318  0.62934873  0.17929173    -0.26900
C182        C  0.34501157  0.59222492  0.15679583    -0.15000
C183        C  0.38259429  0.59358449  0.13406357     0.35600
C184        C  0.41955436  0.63022189  0.13592753    -0.26400
C185        C  0.41968760  0.66499909  0.15983782    -0.15600
C186        C  0.38092107  0.66531778  0.18142968     0.36700
N187        N  0.38012292  0.70196765  0.20543560    -0.89800
H188        H  0.31245899  0.63021792  0.19519258     0.17800
H189        H  0.44900741  0.63095517  0.11896288     0.17800
N190        N  0.38392680  0.55953367  0.10862051    -0.88900
H191        H  0.34910347  0.69683184  0.21957056     0.35200
H192        H  0.37574674  0.73675115  0.19530733     0.40300
H193        H  0.35678631  0.53200345  0.11048844     0.39900
H194        H  0.41852692  0.54154242  0.10859932     0.34800
C195        C  0.50361945  0.15586958  0.07655062    -0.26900
C196        C  0.49573013  0.10665684  0.08502939    -0.15000
C197        C  0.48776291  0.09516559  0.11595143     0.35600
C198        C  0.48851390  0.13347200  0.13809263    -0.26400
C199        C  0.49694682  0.18330113  0.12985435    -0.15600
C200        C  0.50362689  0.19412544  0.09837413     0.36700
N201        N  0.51054447  0.24423642  0.08837016    -0.89800
H202        H  0.50944689  0.16478705  0.05270841     0.17800
H203        H  0.48218631  0.12369710  0.16158535     0.17800
N204        N  0.48061797  0.04438145  0.12483354    -0.88900
H205        H  0.48221269  0.25273895  0.07278104     0.35200
H206        H  0.54477196  0.24623321  0.07695622     0.40300
H207        H  0.44712069  0.03215110  0.11514108     0.39900
H208        H  0.47631364  0.04184982  0.14850056     0.34800
C209        C  0.43556172  0.39355066  0.16393993    -0.26900
C210        C  0.41947158  0.34414455  0.16536108    -0.15000
C211        C  0.36791610  0.33419414  0.16843813     0.35600
C212        C  0.33359570  0.37329691  0.16749975    -0.26400
C213        C  0.34940904  0.42270710  0.16497990    -0.15600
C214        C  0.40109066  0.43292484  0.16410934     0.36700
N215        N  0.41898698  0.48287385  0.16299137    -0.89800
H216        H  0.47515544  0.40166437  0.16254537     0.17800
H217        H  0.29412764  0.36508009  0.16956067     0.17800
N218        N  0.34945652  0.28538212  0.17455781    -0.88900
H219        H  0.44276910  0.48564225  0.14420159     0.35200
H220        H  0.44061658  0.48916473  0.18253049     0.40300
H221        H  0.36809277  0.27144115  0.19370671     0.39900
H222        H  0.35649895  0.26226874  0.15587887     0.34800
C223        C  0.63937777  0.39296056  0.14066409    -0.26900
C224        C  0.66457382  0.40535644  0.16768024    -0.15000
C225        C  0.65278760  0.38084887  0.19497413     0.35600
C226        C  0.61596121  0.34404736  0.19481432    -0.26400
C227        C  0.58937651  0.33294380  0.16807643    -0.15600
C228        C  0.60123019  0.35753783  0.14079400     0.36700
N229        N  0.57329857  0.34791629  0.11350087    -0.89800
H230        H  0.64795093  0.41230758  0.11969310     0.17800
H231        H  0.60862661  0.32389779  0.21553258     0.17800
N232        N  0.67841075  0.39299682  0.22275774    -0.88900
H233        H  0.59826980  0.33625607  0.09655170     0.35200
H234        H  0.55698087  0.38128335  0.10647473     0.40300
H235        H  0.69548807  0.36075569  0.23096134     0.39900
H236        H  0.65184037  0.40460767  0.23879910     0.34800
C237        C  0.53271278  0.72113445  0.28555324    -0.26900
C238        C  0.49757922  0.75171956  0.30026339    -0.15000
C239        C  0.46557172  0.78203481  0.28238580     0.35600
C240        C  0.47070546  0.78152117  0.25040683    -0.26400
C241        C  0.50517470  0.74992650  0.23582380    -0.15600
C242        C  0.53676023  0.71970547  0.25367658     0.36700
N243        N  0.57340842  0.68809264  0.23943554    -0.89800
H244        H  0.55752627  0.69821546  0.29910445     0.17800
H245        H  0.44580160  0.80416237  0.23674341     0.17800
N246        N  0.42629365  0.81194179  0.29546125    -0.88900
H247        H  0.59247268  0.66700302  0.25570354     0.35200
H248        H  0.59991053  0.71118591  0.22938866     0.40300
H249        H  0.42293567  0.80636762  0.31886390     0.39900
H250        H  0.39250407  0.79970120  0.28608476     0.34800
C251        C  0.54981965  0.83412125  0.42413481    -0.26900
C252        C  0.50564494  0.82109934  0.40847367    -0.15000
C253        C  0.46260921  0.85120656  0.41315976     0.35600
C254        C  0.46334362  0.88901930  0.43541833    -0.26400
C255        C  0.50654186  0.89956182  0.45237560    -0.15600
C256        C  0.55068199  0.87239429  0.44611516     0.36700
N257        N  0.59619902  0.88297275  0.46235156    -0.89800
H258        H  0.58442505  0.81505005  0.41947435     0.17800
H259        H  0.42979693  0.91075257  0.43937265     0.17800
N260        N  0.41776158  0.84274312  0.39576963    -0.88900
H261        H  0.62556117  0.86079975  0.45431345     0.35200
H262        H  0.59067305  0.87302188  0.48512333     0.40300
H263        H  0.42516388  0.85213849  0.37314203     0.39900
H264        H  0.38899580  0.86639624  0.40305420     0.34800
C265        C  0.71554340  0.52897267  0.28673906    -0.26900
C266        C  0.74647672  0.49578504  0.30262805    -0.15000
C267        C  0.77908655  0.46429560  0.28609931     0.35600
C268        C  0.77988418  0.46666516  0.25398878    -0.26400
C269        C  0.74792931  0.49900721  0.23818139    -0.15600
C270        C  0.71595397  0.53083218  0.25481176     0.36700
N271        N  0.68429880  0.56566104  0.23940726    -0.89800
H272        H  0.69092282  0.55390820  0.29917716     0.17800
H273        H  0.80396564  0.44171200  0.24119362     0.17800
N274        N  0.80985447  0.42889369  0.30185220    -0.88900
H275        H  0.64728904  0.55842656  0.24555752     0.35200
H276        H  0.69323078  0.60135068  0.24712084     0.40300
H277        H  0.83151162  0.40847115  0.28634466     0.39900
H278        H  0.78608572  0.40360895  0.31249494     0.34800
C279        C  0.86187251  0.50074356  0.40588906    -0.26900
C280        C  0.81105632  0.50637948  0.41380242    -0.15000
C281        C  0.79905607  0.51412658  0.44508763     0.35600
C282        C  0.83704464  0.51644383  0.46717105    -0.26400
C283        C  0.88706697  0.51008948  0.45893621    -0.15600
C284        C  0.89977028  0.50233967  0.42813434     0.36700
N285        N  0.95138751  0.49689465  0.41952535    -0.89800
H286        H  0.87298048  0.49400702  0.38263149     0.17800
H287        H  0.82728010  0.52202329  0.49097050     0.17800
N288        N  0.74804771  0.51901518  0.45464260    -0.88900
H289        H  0.95480421  0.49296320  0.39585540     0.35200
H290        H  0.96476176  0.46389671  0.42900729     0.40300
H291        H  0.74391779  0.55327311  0.46574082     0.39900
H292        H  0.74054883  0.49103155  0.47040925     0.34800
C293        C  0.60666935  0.57240393  0.37100134    -0.26900
C294        C  0.65698882  0.58575873  0.36818125    -0.15000
C295        C  0.66930892  0.63582460  0.36228299     0.35600
C296        C  0.63164435  0.67191821  0.36258560    -0.26400
C297        C  0.58157804  0.65885975  0.36731208    -0.15600
C298        C  0.56885075  0.60843614  0.37028416     0.36700
N299        N  0.51782494  0.59366389  0.37347230    -0.89800
H300        H  0.59665498  0.53388831  0.37445155     0.17800
H301        H  0.64141333  0.71040956  0.35876387     0.17800
N302        N  0.71894396  0.65069675  0.35429341    -0.88900
H303        H  0.51463125  0.57372181  0.39375434     0.35200
H304        H  0.50926888  0.56953427  0.35542683     0.40300
H305        H  0.73094403  0.62899814  0.33581777     0.39900
H306        H  0.74286844  0.64479092  0.37273598     0.34800
C307        C  0.28720434  0.54038713  0.28398137    -0.26900
C308        C  0.24917648  0.51433848  0.29883317    -0.15000
C309        C  0.21553461  0.48608494  0.28099418     0.35600
C310        C  0.21986586  0.48629681  0.24884194    -0.26400
C311        C  0.25759832  0.51349042  0.23401266    -0.15600
C312        C  0.29145217  0.54081614  0.25221366     0.36700
N313        N  0.32983094  0.57041789  0.23891655    -0.89800
H314        H  0.31423756  0.56137482  0.29696473     0.17800
H315        H  0.19448900  0.46383821  0.23538460     0.17800
N316        N  0.17847122  0.45577617  0.29545993    -0.88900
H317        H  0.36433655  0.55753907  0.24689163     0.35200
H318        H  0.32529579  0.60691223  0.24677347     0.40300
H319        H  0.19728396  0.42855395  0.30799332     0.39900
H320        H  0.15699875  0.43705458  0.27913981     0.34800
C321        C  0.10528922  0.47455463  0.43422960    -0.26900
C322        C  0.09318661  0.51766426  0.45094168    -0.15000
C323        C  0.11445049  0.56309908  0.44205106     0.35600
C324        C  0.15078726  0.56374959  0.41906128    -0.26400
C325        C  0.16771309  0.51964323  0.40487055    -0.15600
C326        C  0.14103829  0.47532165  0.41071185     0.36700
N327        N  0.15113533  0.43093402  0.39332412    -0.89800
H328        H  0.08703113  0.43986738  0.43963001     0.17800
H329        H  0.16562912  0.59943221  0.41271438     0.17800
N330        N  0.10022534  0.60876556  0.45663231    -0.88900
H331        H  0.14052071  0.43765044  0.37075953     0.35200
H332        H  0.12915116  0.40148013  0.40094738     0.40300
H333        H  0.12285228  0.60297231  0.98325130     0.39900
H334        H  0.18433417  0.59301131  0.98543927     0.34800
C335        C  0.37825419  0.66796613  0.35060859    -0.26900
C336        C  0.41150749  0.66780608  0.37528845    -0.15000
C337        C  0.40345492  0.63515590  0.40002335     0.35600
C338        C  0.36296560  0.60238511  0.39875232    -0.26400
C339        C  0.33037585  0.60192570  0.37370287    -0.15600
C340        C  0.33660074  0.63683038  0.35006018     0.36700
N341        N  0.30093745  0.64282774  0.32576827    -0.89800
H342        H  0.38380084  0.69381573  0.33203264     0.17800
H343        H  0.35750492  0.57625161  0.41717386     0.17800
N344        N  0.43557526  0.63356073  0.42638089    -0.88900
H345        H  0.28795936  0.67946445  0.32661771     0.35200
H346        H  0.26945066  0.62082325  0.32918388     0.40300
H347        H  0.46643776  0.65670528  0.42401440     0.39900
H348        H  0.44979787  0.59748285  0.42813965     0.34800
C349        C  0.46425118  0.22845771  0.29075846    -0.26900
C350        C  0.49098748  0.26637204  0.30598612    -0.15000
C351        C  0.51889855  0.29969213  0.28803354     0.35600
C352        C  0.51955685  0.29453637  0.25632480    -0.26400
C353        C  0.49342980  0.25686736  0.24097031    -0.15600
C354        C  0.46498433  0.22340769  0.25858862     0.36700
N355        N  0.43576960  0.18541681  0.24399277    -0.89800
H356        H  0.44138857  0.20331277  0.30386221     0.17800
H357        H  0.54170279  0.32076715  0.24388535     0.17800
N358        N  0.54787787  0.33873040  0.30139634    -0.88900
H359        H  0.40759605  0.20304469  0.23148362     0.35200
H360        H  0.41795904  0.16335786  0.26020060     0.40300
H361        H  0.53391175  0.37254452  0.29337273     0.39900
H362        H  0.58454651  0.33534093  0.29341401     0.34800
C363        C  0.52329550  0.11889043  0.43266767    -0.26900
C364        C  0.48567776  0.11278252  0.45444844    -0.15000
C365        C  0.44511413  0.14627819  0.45494314     0.35600
C366        C  0.44442584  0.18648194  0.43464031    -0.26400
C367        C  0.48308429  0.19440853  0.41326309    -0.15600
C368        C  0.52246718  0.15833600  0.41203288     0.36700
N369        N  0.56277009  0.16013543  0.39046714    -0.89800
H370        H  0.55408820  0.09265100  0.43169078     0.17800
H371        H  0.41318744  0.21140507  0.43640323     0.17800
N372        N  0.40571411  0.14087810  0.47699886    -0.88900
H373        H  0.58291319  0.19294915  0.39289551     0.35200
H374        H  0.54910064  0.15675236  0.36828328     0.40300
H375        H  0.38483266  0.10976524  0.47064116     0.39900
H376        H  0.38103470  0.17103754  0.47620993     0.34800
C377        C  0.35539139  0.34663824  0.37397731    -0.26900
C378        C  0.40581794  0.36031418  0.37735294    -0.15000
C379        C  0.41756687  0.41142982  0.38037229     0.35600
C380        C  0.37969745  0.44704676  0.37876914    -0.26400
C381        C  0.32969776  0.43332790  0.37540621    -0.15600
C382        C  0.31714313  0.38263994  0.37306932     0.36700
N383        N  0.26586471  0.36802721  0.36934404    -0.89800
H384        H  0.34587447  0.30770447  0.37176758     0.17800
H385        H  0.38932708  0.48595773  0.38119361     0.17800
N386        N  0.46659023  0.42852940  0.38780750    -0.88900
H387        H  0.26295420  0.32937522  0.36815015     0.35200
H388        H  0.25344716  0.38171188  0.34835853     0.40300
H389        H  0.49115467  0.42071687  0.37000558     0.39900
H390        H  0.47791944  0.41044276  0.40764180     0.34800
C391        C  0.58110053  0.38397653  0.40408077    -0.26900
C392        C  0.57936100  0.34606510  0.38205015    -0.15000
C393        C  0.61900013  0.34125696  0.36091798     0.35600
C394        C  0.65514575  0.37867510  0.35940972    -0.26400
C395        C  0.65483839  0.41859779  0.38005163    -0.15600
C396        C  0.61804870  0.42070854  0.40325331     0.36700
N397        N  0.61653966  0.45944105  0.42603223    -0.89800
H398        H  0.55327816  0.38537857  0.42195698     0.17800
H399        H  0.68445686  0.37596449  0.34240071     0.17800
N400        N  0.62471042  0.29843808  0.34142351    -0.88900
H401        H  0.58298977  0.47892677  0.42322258     0.35200
H402        H  0.64511653  0.48518281  0.42314217     0.40300
H403        H  0.59710205  0.27203986  0.34544998     0.39900
H404        H  0.65861475  0.28138903  0.34705019     0.34800
C405        C  0.48976446  0.23475946  0.89300707     0.85900
C406        C  0.44872297  0.27541696  0.89589186    -0.54300
C407        C  0.45530127  0.31557204  0.87725423     0.08800
C408        C  0.50262762  0.31124146  0.85720732     0.19800
C409        C  0.48863849  0.22209789  0.85867886    -0.55100
C410        C  0.49636731  0.26160892  0.83994111     0.08900
C411        C  0.53870772  0.26318828  0.89862677    -0.54600
C412        C  0.54581471  0.30253503  0.87990522     0.09500
H413        H  0.41579944  0.27301937  0.91005733     0.14000
H414        H  0.50824937  0.34290639  0.84157071    -0.00300
H415        H  0.48052637  0.18532861  0.84977638     0.14300
H416        H  0.56521971  0.25350898  0.91644345     0.14100
C417        C  0.22528339  0.51360767  0.88669552     0.85900
C418        C  0.25875953  0.56017014  0.88857495    -0.54300
C419        C  0.29910315  0.55867901  0.87002380     0.08800
C420        C  0.30269969  0.51151838  0.85043830     0.19800
C421        C  0.21164782  0.51075892  0.85227565    -0.55100
C422        C  0.25251568  0.50915835  0.83325845     0.08900
C423        C  0.26078232  0.46932221  0.89189809    -0.54600
C424        C  0.30092005  0.46805404  0.87273741     0.09500
H425        H  0.25117994  0.59306830  0.90217230     0.14000
H426        H  0.33633420  0.51028241  0.83563881    -0.00300
H427        H  0.17357057  0.51215353  0.84380078     0.14300
H428        H  0.25467515  0.44146598  0.90931458     0.14100
C429        C  0.77020771  0.50219613  0.88845208     0.85900
C430        C  0.73680016  0.45752711  0.89529453    -0.54300
C431        C  0.69565931  0.45430189  0.87727681     0.08800
C432        C  0.69129313  0.49575756  0.85348040     0.19800
C433        C  0.78221624  0.49732080  0.85397056    -0.55100
C434        C  0.74067352  0.49401062  0.83582456     0.08900
C435        C  0.73532083  0.54780851  0.89001325    -0.54600
C436        C  0.69442516  0.54480499  0.87141902     0.09500
H437        H  0.74494047  0.43065695  0.91303942     0.14000
H438        H  0.65764108  0.49253092  0.83873101    -0.00300
H439        H  0.81908933  0.50009413  0.84406762     0.14300
H440        H  0.74229193  0.57933115  0.90491693     0.14100
C441        C  0.50480520  0.77742085  0.88392822     0.85900
C442        C  0.54971731  0.74078308  0.88517796    -0.54300
C443        C  0.54570655  0.70104112  0.86574202     0.08800
C444        C  0.49770247  0.70130354  0.84670317     0.19800
C445        C  0.50114984  0.79155796  0.84989813    -0.55100
C446        C  0.49744540  0.75164860  0.83046877     0.08900
C447        C  0.45952990  0.74364846  0.88988749    -0.54600
C448        C  0.45573160  0.70445807  0.87029949     0.09500
H449        H  0.58085802  0.74340762  0.90087334     0.14000
H450        H  0.49431558  0.66912178  0.83084565     0.05500
H451        H  0.50341795  0.82954838  0.84186990     0.14300
H452        H  0.43282573  0.74979949  0.90819082     0.14100
C453        C  0.49415732  0.22612713  0.65420000     0.85900
C454        C  0.54236928  0.25691210  0.65221812    -0.54300
C455        C  0.54344106  0.29777326  0.67081557     0.08800
C456        C  0.49730626  0.30215186  0.69153343     0.19800
C457        C  0.49127588  0.21193829  0.68843111    -0.55100
C458        C  0.49282392  0.25195727  0.70781161     0.08900
C459        C  0.45140386  0.26384346  0.64986667    -0.54600
C460        C  0.45293995  0.30322304  0.66960524     0.09500
H461        H  0.57276706  0.24723884  0.63689126     0.14000
H462        H  0.49796170  0.33455953  0.70733776    -0.00300
H463        H  0.49049586  0.17447394  0.69713852     0.14300
H464        H  0.42327737  0.26022960  0.63212379     0.14100
C465        C  0.23505672  0.50475369  0.64679348     0.85900
C466        C  0.27217513  0.46069649  0.64575010    -0.54300
C467        C  0.31190741  0.46540872  0.66494879     0.08800
C468        C  0.31155029  0.51355074  0.68365536     0.19800
C469        C  0.22080278  0.50844992  0.68090635    -0.55100
C470        C  0.26072236  0.51322971  0.70038668     0.08900
C471        C  0.26767383  0.55055607  0.64073520    -0.54600
C472        C  0.30754372  0.55507725  0.65985492     0.09500
H473        H  0.26842389  0.42745763  0.63206846     0.14000
H474        H  0.34463481  0.51634112  0.69874635    -0.00300
H475        H  0.18242272  0.50694454  0.68883660     0.14300
H476        H  0.26031071  0.57679717  0.62252521     0.14100
C477        C  0.77200205  0.49340378  0.65194348     0.85900
C478        C  0.73735450  0.53750268  0.64508736    -0.54300
C479        C  0.69554927  0.53919002  0.66268155     0.08800
C480        C  0.69225664  0.49744192  0.68607486     0.19800
C481        C  0.78305153  0.49819944  0.68650096    -0.55100
C482        C  0.74113646  0.50051183  0.70420736     0.08900
C483        C  0.73861885  0.44701070  0.64967136    -0.54600
C484        C  0.69688608  0.44920014  0.66755700     0.09500
H485        H  0.74532779  0.56514116  0.62780654     0.14000
H486        H  0.65809251  0.49959049  0.70031330    -0.00300
H487        H  0.81971470  0.49866352  0.69685164     0.14300
H488        H  0.74750994  0.41511772  0.63535530     0.14100
C489        C  0.51149696  0.77545600  0.64511684     0.85900
C490        C  0.46521465  0.74293557  0.63941332    -0.54300
C491        C  0.46141013  0.70363512  0.65863627     0.08800
C492        C  0.50471340  0.69890197  0.68137340     0.19800
C493        C  0.51050138  0.78878237  0.67947689    -0.55100
C494        C  0.50670674  0.74877506  0.69832567     0.08900
C495        C  0.55498850  0.73771618  0.64214795    -0.54600
C496        C  0.55179580  0.69854789  0.66152480     0.09500
H497        H  0.43810423  0.74986220  0.62145509     0.14000
H498        H  0.50142986  0.66634476  0.69669710    -0.00300
H499        H  0.51447441  0.82634549  0.68823210     0.14300
H500        H  0.58550439  0.73920111  0.62609383     0.14100
O501        O  0.95012603  0.54106988  0.55642027    -0.72400
O502        O  0.04686133  0.54841644  0.98960031    -0.72600
O503        O  0.94641621  0.54575835  0.99034079    -0.72400
O504        O  0.04970080  0.54521726  0.55125923    -0.72500
O505        O  0.05052657  0.46471148  0.54852689    -0.72400
O506        O  0.95009161  0.46528060  0.98626168    -0.72400
O507        O  0.04967981  0.46792451  0.98644265    -0.72400
O508        O  0.95033524  0.46075271  0.55060421    -0.72600
V509        V  0.99530922  0.54527583  0.52327123     1.35200
V510        V  0.99829302  0.46805410  0.51923366     1.35200
C511        C  0.93414392  0.49896316  0.56419636     0.76900
C512        C  0.06518344  0.50964074  0.97756034     0.76900
C513        C  0.93133972  0.50605670  0.97791467     0.76800
C514        C  0.06837939  0.50431171  0.55966477     0.76800
O515        O  0.54237576  0.95396267  0.98838861    -0.72400
O516        O  0.53670706  0.05978418  0.54766391    -0.72600
O517        O  0.54616637  0.96029714  0.54761625    -0.72400
O518        O  0.53348537  0.05305020  0.98717230    -0.72500
O519        O  0.45276416  0.05048254  0.99162102    -0.72400
O520        O  0.46547814  0.95208191  0.54829318    -0.72400
O521        O  0.45611089  0.05079646  0.55014228    -0.72400
O522        O  0.46148281  0.95081425  0.98789557    -0.72600
V523        V  0.53843038  0.00942770  0.51702578     1.35200
V524        V  0.46086355  0.00230686  0.51848802     1.35200
C525        C  0.50291560  0.93551104  0.97731914     0.76900
C526        C  0.49538647  0.07180290  0.55961041     0.76900
C527        C  0.50783617  0.93914042  0.55819513     0.76800
C528        C  0.49093725  0.06912236  0.97927718     0.76800
C529        C  0.47251369  0.89428023  0.60224895    -0.26900
C530        C  0.51171770  0.89999212  0.58145972    -0.15000
C531        C  0.55310024  0.86781938  0.58286307     0.35600
C532        C  0.55347188  0.82943350  0.60433548    -0.26400
C533        C  0.51284732  0.82127440  0.62434360    -0.15600
C534        C  0.47280526  0.85639548  0.62386481     0.36700
N535        N  0.43197000  0.85572713  0.64507862    -0.89800
H536        H  0.44121430  0.91994862  0.60189820     0.17800
H537        H  0.58624237  0.80642991  0.60466054     0.17800
N538        N  0.59412858  0.87328102  0.56195627    -0.88900
H539        H  0.44531234  0.86056228  0.66726986     0.35200
H540        H  0.41217833  0.82262436  0.64336171     0.40300
H541        H  0.58063724  0.86539825  0.54006420     0.39900
H542        H  0.62219127  0.84715715  0.56631542     0.34800
C543        C  0.86582851  0.49890446  0.63966003    -0.26900
C544        C  0.81605790  0.49189145  0.62982876    -0.15000
C545        C  0.80692897  0.48593099  0.59814407     0.35600
C546        C  0.84659897  0.48683681  0.57747291    -0.26400
C547        C  0.89546571  0.49472775  0.58746917    -0.15600
C548        C  0.90550352  0.50058356  0.61889247     0.36700
N549        N  0.95524097  0.50758159  0.63064494    -0.89800
H550        H  0.87510482  0.50426079  0.66335192     0.17800
H551        H  0.83894602  0.48269231  0.55326542     0.17800
N552        N  0.75706467  0.48003528  0.58672212    -0.88900
H553        H  0.95671426  0.54291031  0.64063383     0.35200
H554        H  0.98205353  0.50676827  0.61336533     0.40300
H555        H  0.75537919  0.44648517  0.57462454     0.39900
H556        H  0.74975205  0.50886611  0.57145807     0.34800
C557        C  0.67534103  0.62873972  0.66276805    -0.26900
C558        C  0.65855850  0.57966886  0.66097108    -0.15000
C559        C  0.60701339  0.56971602  0.65937090     0.35600
C560        C  0.57301319  0.60942274  0.66013009    -0.26400
C561        C  0.58967469  0.65862930  0.66238013    -0.15600
C562        C  0.64170711  0.66844256  0.66428723     0.36700
N563        N  0.66194328  0.71747236  0.66873529    -0.89800
H564        H  0.71503724  0.63619048  0.66447399     0.17800
H565        H  0.53332386  0.60202011  0.65835167     0.17800
N566        N  0.58952502  0.51948694  0.65642619    -0.88900
H567        H  0.68408782  0.71665487  0.68841073     0.35200
H568        H  0.63420964  0.74356272  0.67357202     0.40300
H569        H  0.60252315  0.50548205  0.63555639     0.39900
H570        H  0.55051094  0.51860232  0.65542623     0.34800
C571        C  0.11497343  0.54118020  0.60357867    -0.26900
C572        C  0.11009676  0.50287066  0.58194752    -0.15000
C573        C  0.14533735  0.46386361  0.58174766     0.35600
C574        C  0.18436975  0.46388074  0.60319084    -0.26400
C575        C  0.19000858  0.50245426  0.62495579    -0.15600
C576        C  0.15419067  0.54128215  0.62492433     0.36700
N577        N  0.15779243  0.58141973  0.64643057    -0.89800
H578        H  0.08802803  0.57131127  0.60404324     0.17800
H579        H  0.21061986  0.43380492  0.60155900     0.17800
N580        N  0.14238897  0.42495630  0.55914336    -0.88900
H581        H  0.12478325  0.58255222  0.65916722     0.35200
H582        H  0.16045977  0.61457207  0.63425480     0.40300
H583        H  0.17061874  0.39856928  0.56233346     0.39900
H584        H  0.14886464  0.44100453  0.53782704     0.34800
C585        C  0.34525361  0.63249515  0.67954612    -0.26900
C586        C  0.34481169  0.59519466  0.65711655    -0.15000
C587        C  0.38056814  0.59636748  0.63326100     0.35600
C588        C  0.41714229  0.63355681  0.63352662    -0.26400
C589        C  0.41966435  0.66824045  0.65743099    -0.15600
C590        C  0.38322494  0.66823335  0.68048581     0.36700
N591        N  0.38524127  0.70428376  0.70480527    -0.89800
H592        H  0.31561054  0.63393181  0.69622667     0.17800
H593        H  0.44494427  0.63426828  0.61555369     0.17800
N594        N  0.38109579  0.56089588  0.60855145    -0.88900
H595        H  0.35614761  0.69866326  0.72030062     0.35200
H596        H  0.37957954  0.73933260  0.69523361     0.40300
H597        H  0.35447147  0.53311899  0.61149553     0.39900
H598        H  0.41583463  0.54316848  0.60855472     0.34800
C599        C  0.50039075  0.15951585  0.57616081    -0.26900
C600        C  0.49314796  0.10986009  0.58386829    -0.15000
C601        C  0.48432181  0.09712995  0.61450452     0.35600
C602        C  0.48475169  0.13449808  0.63720902    -0.26400
C603        C  0.49280041  0.18479869  0.62980217    -0.15600
C604        C  0.49928951  0.19696466  0.59853464     0.36700
N605        N  0.50482771  0.24760896  0.58929804    -0.89800
H606        H  0.50641396  0.16942343  0.55249382     0.17800
H607        H  0.47802279  0.12356368  0.66044304     0.17800
N608        N  0.47609027  0.04610764  0.62251619    -0.88900
H609        H  0.47615431  0.25595233  0.57391434     0.35200
H610        H  0.53886764  0.25088591  0.57779649     0.40300
H611        H  0.44247282  0.03499294  0.61241457     0.39900
H612        H  0.47128635  0.04261719  0.64607652     0.34800
C613        C  0.43417322  0.39330553  0.66725076    -0.26900
C614        C  0.41645962  0.34447091  0.66950968    -0.15000
C615        C  0.36477829  0.33624306  0.67327478     0.35600
C616        C  0.33179123  0.37641369  0.67240319    -0.26400
C617        C  0.34914751  0.42506678  0.66848765    -0.15600
C618        C  0.40094331  0.43372750  0.66687976     0.36700
N619        N  0.41995913  0.48309541  0.66406602    -0.89800
H620        H  0.47395375  0.40004494  0.66524198     0.17800
H621        H  0.29211606  0.36958838  0.67491185     0.17800
N622        N  0.34490462  0.28799118  0.67937732    -0.88900
H623        H  0.44211562  0.48427159  0.64446989     0.35200
H624        H  0.44319133  0.49007755  0.68281548     0.40300
H625        H  0.36320458  0.27352351  0.69847738     0.39900
H626        H  0.35155257  0.26475907  0.66066922     0.34800
C627        C  0.64275505  0.38702034  0.64155601    -0.26900
C628        C  0.65915637  0.40917257  0.66878389    -0.15000
C629        C  0.63765060  0.39455331  0.69663590     0.35600
C630        C  0.59936085  0.35927758  0.69668562    -0.26400
C631        C  0.58347945  0.33609281  0.66959545    -0.15600
C632        C  0.60503966  0.35102950  0.64166172     0.36700
N633        N  0.58719701  0.33170380  0.61315835    -0.89800
H634        H  0.65821358  0.39876701  0.61992044     0.17800
H635        H  0.58260221  0.35000590  0.71822729     0.17800
N636        N  0.65556564  0.41418816  0.72507541    -0.88900
H637        H  0.61732696  0.31522500  0.60172414     0.35200
H638        H  0.57437068  0.36140814  0.60000612     0.40300
H639        H  0.66809842  0.38459087  0.73841955     0.39900
H640        H  0.62559054  0.43111832  0.73641825     0.34800
C641        C  0.53668514  0.72638699  0.78182309    -0.26900
C642        C  0.49973562  0.75478835  0.79661024    -0.15000
C643        C  0.46561116  0.78277349  0.77874736     0.35600
C644        C  0.47015394  0.78198947  0.74675628    -0.26400
C645        C  0.50642461  0.75258413  0.73214409    -0.15600
C646        C  0.54039799  0.72492591  0.74988021     0.36700
N647        N  0.57895337  0.69591049  0.73541698    -0.89800
H648        H  0.56299688  0.70515235  0.79536587     0.17800
H649        H  0.44362652  0.80278665  0.73311444     0.17800
N650        N  0.42492165  0.81064026  0.79187801    -0.88900
H651        H  0.60042742  0.67717848  0.75166488     0.35200
H652        H  0.60297643  0.72067951  0.72457105     0.40300
H653        H  0.42274929  0.80594892  0.81540872     0.39900
H654        H  0.39170215  0.79597014  0.78307180     0.34800
C655        C  0.54999174  0.83568507  0.92168085    -0.26900
C656        C  0.50603293  0.82255551  0.90585654    -0.15000
C657        C  0.46228717  0.85117138  0.91167819     0.35600
C658        C  0.46211101  0.88691430  0.93533110    -0.26400
C659        C  0.50522825  0.89728909  0.95246721    -0.15600
C660        C  0.55008835  0.87210192  0.94487975     0.36700
N661        N  0.59576633  0.88299367  0.96087591    -0.89800
H662        H  0.58505071  0.81804096  0.91618217     0.17800
H663        H  0.42800875  0.90728140  0.94014918     0.17800
N664        N  0.41768028  0.84325315  0.89397727    -0.88900
H665        H  0.62576231  0.86311894  0.95154531     0.35200
H666        H  0.59167177  0.87045418  0.98327528     0.40300
H667        H  0.42503665  0.85457427  0.87166308     0.39900
H668        H  0.38845427  0.86570576  0.90192684     0.34800
C669        C  0.71060716  0.52927210  0.78690463    -0.26900
C670        C  0.74241655  0.49601775  0.80211646    -0.15000
C671        C  0.77513670  0.46569965  0.78506553     0.35600
C672        C  0.77492899  0.46844517  0.75315296    -0.26400
C673        C  0.74268882  0.50124769  0.73793084    -0.15600
C674        C  0.71085322  0.53249235  0.75501126     0.36700
N675        N  0.67981289  0.56847047  0.74014725    -0.89800
H676        H  0.68605347  0.55359130  0.79983925     0.17800
H677        H  0.79917985  0.44384345  0.74021349     0.17800
N678        N  0.80751376  0.43103757  0.79999286    -0.88900
H679        H  0.64268508  0.56158862  0.74616237     0.35200
H680        H  0.68934192  0.60365710  0.74846609     0.40300
H681        H  0.84429081  0.43930515  0.79384149     0.39900
H682        H  0.79925524  0.39547524  0.79177396     0.34800
C683        C  0.86380345  0.49758676  0.90217573    -0.26900
C684        C  0.81366726  0.50524167  0.91116601    -0.15000
C685        C  0.80357204  0.51306237  0.94263529     0.35600
C686        C  0.84272399  0.51458340  0.96381818    -0.26400
C687        C  0.89203629  0.50691967  0.95460429    -0.15600
C688        C  0.90293158  0.49795647  0.92365842     0.36700
N689        N  0.95377088  0.48983929  0.91416204    -0.89800
H690        H  0.87325928  0.48973620  0.87875347     0.17800
H691        H  0.83437396  0.52055687  0.98778580     0.17800
N692        N  0.75325066  0.51861235  0.95334024    -0.88900
H693        H  0.95575775  0.48498933  0.89049194     0.35200
H694        H  0.96601510  0.45654753  0.92383277     0.40300
H695        H  0.75029549  0.55282713  0.96461707     0.39900
H696        H  0.74628426  0.49059510  0.96918123     0.34800
C697        C  0.60631902  0.57328160  0.86955456    -0.26900
C698        C  0.65712202  0.58532165  0.86801245    -0.15000
C699        C  0.67081526  0.63513152  0.86201676     0.35600
C700        C  0.63391819  0.67208815  0.86107100    -0.26400
C701        C  0.58326527  0.66035225  0.86463105    -0.15600
C702        C  0.56936715  0.61016988  0.86761126     0.36700
N703        N  0.51791982  0.59638619  0.86953816    -0.89800
H704        H  0.59514466  0.53507026  0.87293565     0.17800
H705        H  0.64482228  0.71026251  0.85721215     0.17800
N706        N  0.72117033  0.64897397  0.85506240    -0.88900
H707        H  0.51322544  0.57609856  0.88957210     0.35200
H708        H  0.51003555  0.57264410  0.85120085     0.40300
H709        H  0.73434493  0.62606585  0.83744117     0.39900
H710        H  0.74362346  0.64432041  0.87428934     0.34800
C711        C  0.28628302  0.53938501  0.78439221    -0.26900
C712        C  0.25072904  0.51031717  0.79923569    -0.15000
C713        C  0.21710654  0.48203818  0.78139549     0.35600
C714        C  0.21999140  0.48430063  0.74915188    -0.26400
C715        C  0.25591327  0.51410168  0.73446277    -0.15600
C716        C  0.28863094  0.54241971  0.75274797     0.36700
N717        N  0.32412257  0.57553519  0.73965799    -0.89800
H718        H  0.31322772  0.56047845  0.79731822     0.17800
H719        H  0.19521504  0.46143985  0.73552498     0.17800
N720        N  0.18175781  0.44978122  0.79586448    -0.88900
H721        H  0.35981846  0.56479980  0.74684166     0.35200
H722        H  0.31717663  0.61111493  0.74843169     0.40300
H723        H  0.20199044  0.42259905  0.80757161     0.39900
H724        H  0.16026269  0.43116105  0.77949429     0.34800
C725        C  0.10273425  0.48056904  0.92870324    -0.26900
C726        C  0.10440119  0.51266663  0.95402461    -0.15000
C727        C  0.14557558  0.54427468  0.95790687     0.35600
C728        C  0.18403867  0.54338886  0.93624251    -0.26400
C729        C  0.18163739  0.51358101  0.90954183    -0.15600
C730        C  0.14108592  0.48008507  0.90667539     0.36700
N731        N  0.13927565  0.44495396  0.88185128    -0.89800
H732        H  0.07157220  0.45524269  0.92633120     0.17800
H733        H  0.21680587  0.56493139  0.94148170     0.17800
N734        N  0.14980601  0.57495137  0.98481868    -0.88900
H735        H  0.10651257  0.42398666  0.88275043     0.35200
H736        H  0.16883319  0.41994014  0.88470426     0.40300
H737        H  0.08647513  0.63275057  0.43989594     0.39900
H738        H  0.13222319  0.62479721  0.46614457     0.34800
C739        C  0.38041363  0.66762861  0.84743101    -0.26900
C740        C  0.41479537  0.66811797  0.87156808    -0.15000
C741        C  0.40861740  0.63499284  0.89628236     0.35600
C742        C  0.37013143  0.60002432  0.89497210    -0.26400
C743        C  0.33683839  0.59844261  0.87032483    -0.15600
C744        C  0.33981408  0.63499522  0.84735301     0.36700
N745        N  0.30155981  0.64168010  0.82465898    -0.89800
H746        H  0.38389709  0.69442891  0.82917724     0.17800
H747        H  0.36634331  0.57348248  0.91333559     0.17800
N748        N  0.44017741  0.63558975  0.92291868    -0.88900
H749        H  0.28795015  0.67796845  0.82688000     0.35200
H750        H  0.27097707  0.61883206  0.82893803     0.40300
H751        H  0.47037981  0.65954201  0.92038959     0.39900
H752        H  0.45539353  0.60010801  0.92560979     0.34800
C753        C  0.45629573  0.23266853  0.79115435    -0.26900
C754        C  0.49606095  0.25693516  0.80602976    -0.15000
C755        C  0.53523347  0.27612633  0.78831756     0.35600
C756        C  0.53442688  0.27061705  0.75660902    -0.26400
C757        C  0.49411151  0.24861620  0.74159075    -0.15600
C758        C  0.45459277  0.22880452  0.75897772     0.36700
N759        N  0.41217689  0.20683951  0.74405290    -0.89800
H760        H  0.42588569  0.21795996  0.80463049     0.17800
H761        H  0.56589474  0.28357421  0.74358753     0.17800
N762        N  0.57657384  0.30076789  0.80226388    -0.88900
H763        H  0.38536025  0.19653109  0.76011441     0.35200
H764        H  0.42424215  0.17395825  0.73356869     0.40300
H765        H  0.57792960  0.33696168  0.79383458     0.39900
H766        H  0.60914091  0.28248678  0.79514868     0.34800
C767        C  0.52120346  0.11014945  0.93245161    -0.26900
C768        C  0.48651592  0.10888374  0.95625222    -0.15000
C769        C  0.45064114  0.14709663  0.95871758     0.35600
C770        C  0.45128385  0.18648377  0.93774277    -0.26400
C771        C  0.48655674  0.18871495  0.91374937    -0.15600
C772        C  0.52182875  0.14883189  0.91133986     0.36700
N773        N  0.55990698  0.14630471  0.88833059    -0.89800
H774        H  0.54875192  0.08070443  0.93033150     0.17800
H775        H  0.42475695  0.21592771  0.94144747     0.17800
N776        N  0.41548691  0.14747889  0.98355460    -0.88900
H777        H  0.58209052  0.17804431  0.88899597     0.35200
H778        H  0.54391149  0.14183748  0.86681990     0.40300
H779        H  0.39020001  0.11863106  0.97967787     0.39900
H780        H  0.39434767  0.18020072  0.98360829     0.34800
C781        C  0.36609048  0.34196141  0.87147857    -0.26900
C782        C  0.41657559  0.35574864  0.87469281    -0.15000
C783        C  0.42801616  0.40705460  0.87680656     0.35600
C784        C  0.38984274  0.44252291  0.87527204    -0.26400
C785        C  0.33971490  0.42855720  0.87304533    -0.15600
C786        C  0.32757157  0.37777349  0.87072692     0.36700
N787        N  0.27635672  0.36285297  0.86723051    -0.89800
H788        H  0.35664170  0.30297033  0.86958471     0.17800
H789        H  0.39931826  0.48152207  0.87734258     0.17800
N790        N  0.47699369  0.42462580  0.88364815    -0.88900
H791        H  0.27371825  0.32415492  0.86595131     0.35200
H792        H  0.26362849  0.37654130  0.84633216     0.40300
H793        H  0.50183661  0.41347545  0.86655952     0.39900
H794        H  0.48719648  0.40953934  0.90451570     0.34800
C795        C  0.58590270  0.37647828  0.90315574    -0.26900
C796        C  0.58925494  0.33619874  0.88291214    -0.15000
C797        C  0.63282418  0.33057183  0.86503507     0.35600
C798        C  0.66625661  0.37040155  0.86293996    -0.26400
C799        C  0.65933115  0.41363754  0.88045365    -0.15600
C800        C  0.62018819  0.41560102  0.90210471     0.36700
N801        N  0.61418415  0.45611087  0.92337678    -0.89800
H802        H  0.55640191  0.37748688  0.91995429     0.17800
H803        H  0.69847588  0.36716235  0.84806196     0.17800
N804        N  0.64534991  0.28465283  0.84996774    -0.88900
H805        H  0.58013240  0.47360517  0.91848441     0.35200
H806        H  0.64189413  0.48283597  0.92093970     0.40300
H807        H  0.61901058  0.25722628  0.85460385     0.39900
H808        H  0.67905152  0.27200855  0.85925926     0.34800
loop_ 
_geom_bond_atom_site_label_1 
_geom_bond_atom_site_label_2 
_geom_bond_distance 
_geom_bond_site_symmetry_2 
_ccdc_geom_bond_type 
C1            C2   1.554       .  S
C1            C7   1.539       .  S
C1            C5   1.541       .  S
C1          C367   1.545       .  S
C2            H9   1.080       .  S
C2            C3   1.367       .  D
C3            C4   1.536       .  S
C3          C378   1.493       .  S
C4            C8   1.539       .  S
C4            C6   1.544       .  S
C4           H10   1.101       .  S
C5           H11   1.084       .  S
C5            C6   1.370       .  D
C6          C350   1.505       .  S
C7           H12   1.086       .  S
C7            C8   1.358       .  D
C8          C392   1.480       .  S
C13          C14   1.547       .  S
C13          C19   1.544       .  S
C13          C17   1.545       .  S
C13         C325   1.537       .  S
C14          H21   1.083       .  S
C14          C15   1.356       .  D
C15          C16   1.530       .  S
C15         C339   1.473       .  S
C16          C20   1.530       .  S
C16          C18   1.537       .  S
C16          H22   1.110       .  S
C17          H23   1.085       .  S
C17          C18   1.374       .  D
C18         C308   1.495       .  S
C19          H24   1.086       .  S
C19          C20   1.362       .  D
C20         C381   1.478       .  S
C25          C26   1.537       .  S
C25          C31   1.540       .  S
C25          C29   1.554       .  S
C25         C280   1.537       .  S
C26          H33   1.086       .  S
C26          C27   1.360       .  D
C27          C28   1.532       .  S
C27         C395   1.475       .  S
C28          C32   1.531       .  S
C28          C30   1.533       .  S
C28          H34   1.111       .  S
C29          H35   1.081       .  S
C29          C30   1.370       .  D
C30         C266   1.486       .  S
C31          H36   1.085       .  S
C31          C32   1.364       .  D
C32         C294   1.477       .  S
C37          C38   1.550       .  S
C37          C43   1.541       .  S
C37          C41   1.542       .  S
C37         C252   1.538       .  S
C38          H45   1.082       .  S
C38          C39   1.366       .  D
C39          C40   1.530       .  S
C39         C297   1.478       .  S
C40          C44   1.528       .  S
C40          C42   1.534       .  S
C40          H46   1.111       .  S
C41          H47   1.086       .  S
C41          C42   1.368       .  D
C42         C238   1.485       .  S
C43          H48   1.086       .  S
C43          C44   1.360       .  D
C44         C336   1.471       .  S
C49          C50   1.536       .  S
C49          C55   1.536       .  S
C49          C53   1.560       .  S
C49         C199   1.537       .  S
C50          H57   1.087       .  S
C50          C51   1.358       .  D
C51          C52   1.532       .  S
C51         C227   1.474       .  S
C52          C56   1.527       .  S
C52          C54   1.540       .  S
C52          H58   1.109       .  S
C53          H59   1.080       .  S
C53          C54   1.380       .  D
C54         C353   1.503       .  S
C55          H60   1.085       .  S
C55          C56   1.360       .  D
C56         C210   1.478       .  S
C61          C62   1.548       .  S
C61          C67   1.540       .  S
C61          C65   1.541       .  S
C61         C171   1.540       .  S
C62          H69   1.081       .  S
C62          C63   1.364       .  D
C63          C64   1.531       .  S
C63         C213   1.485       .  S
C64          C68   1.535       .  S
C64          C66   1.544       .  S
C64          H70   1.106       .  S
C65          H71   1.086       .  S
C65          C66   1.372       .  D
C66         C311   1.501       .  S
C67          H72   1.086       .  S
C67          C68   1.361       .  D
C68         C182   1.473       .  S
C73          C74   1.539       .  S
C73          C79   1.537       .  S
C73          C77   1.554       .  S
C73         C140   1.534       .  S
C74          H81   1.086       .  S
C74          C75   1.365       .  D
C75          C76   1.530       .  S
C75         C154   1.479       .  S
C76          C80   1.529       .  S
C76          C78   1.531       .  S
C76          H82   1.110       .  S
C77          H83   1.081       .  S
C77          C78   1.369       .  D
C78         C269   1.483       .  S
C79          H84   1.086       .  S
C79          C80   1.360       .  D
C80         C224   1.470       .  S
C85          C86   1.537       .  S
C85          C91   1.551       .  S
C85          C89   1.547       .  S
C85         C129   1.545       .  S
C86          H93   1.086       .  S
C86          C87   1.360       .  D
C87          C88   1.530       .  S
C87         C185   1.470       .  S
C88          C92   1.531       .  S
C88          C90   1.533       .  S
C88          H94   1.111       .  S
C89          H95   1.085       .  S
C89          C90   1.368       .  D
C90         C241   1.487       .  S
C91          H96   1.079       .  S
C91          C92   1.365       .  D
C92         C157   1.481       .  S
O97         V105   1.897       .  S
O97         C107   1.263       .  A
O98         V509   1.900   1_455  S
O98         C108   1.266       .  A
O99         V509   1.904       .  S
O99         C109   1.264       .  A
O100        V105   1.905   1_455  S
O100        C110   1.266       .  A
O101        V106   1.898   1_455  S
O101        C110   1.265       .  A
O102        V510   1.895       .  S
O102        C109   1.263       .  A
O103        V510   1.894   1_455  S
O103        C108   1.264       .  A
O104        V106   1.900       .  S
O104        C107   1.263       .  A
V105        O502   1.899   1_654  S
V105        O503   1.902   1_554  S
V105        V106   2.088       .  T
V106        O506   1.894   1_554  S
V106        O507   1.897   1_654  S
C107        C143   1.466       .  S
C108        C322   1.485       .  S
C109        C283   1.469       .  S
C110        C168   1.492       .  S
O111        V523   1.900   1_565  S
O111        C121   1.264       .  A
O112        V119   1.901       .  S
O112        C122   1.263       .  A
O113        V119   1.904   1_565  S
O113        C123   1.266       .  A
O114        V523   1.901       .  S
O114        C124   1.266       .  A
O115        V524   1.893       .  S
O115        C124   1.263       .  A
O116        V120   1.895       .  S
O116        C123   1.264       .  A
O117        V120   1.906   1_545  S
O117        C122   1.265       .  A
O118        V524   1.903   1_565  S
O118        C121   1.266       .  A
V119        O515   1.897   1_544  S
V119        O518   1.900   1_554  S
V119        V120   2.084   1_545  T
V120        O519   1.899   1_564  S
V120        O522   1.912   1_554  S
C121        C255   1.488       .  S
C122        C196   1.473       .  S
C123        C126   1.480       .  S
C124        C364   1.481       .  S
C125        C126   1.399       .  A
C125        C130   1.399       .  A
C125        H132   1.084       .  S
C126        C127   1.406       .  A
C127        C128   1.406       .  A
C127        N134   1.439       .  S
C128        C129   1.417       .  A
C128        H133   1.072       .  S
C129        C130   1.429       .  A
C130        N131   1.435       .  S
N131        H135   1.043       .  S
N131        H136   1.041       .  S
N134        H137   1.046       .  S
N134        H138   1.045       .  S
C139        C140   1.411       .  A
C139        C144   1.402       .  A
C139        H146   1.076       .  S
C140        C141   1.420       .  A
C141        C142   1.401       .  A
C141        N148   1.434       .  S
C142        C143   1.397       .  A
C142        H147   1.085       .  S
C143        C144   1.412       .  A
C144        N145   1.439       .  S
N145        H149   1.045       .  S
N145        H150   1.043       .  S
N148        H151   1.046       .  S
N148        H152   1.046       .  S
C153        C154   1.400       .  A
C153        C158   1.398       .  A
C153        H160   1.084       .  S
C154        C155   1.410       .  A
C155        C156   1.405       .  A
C155        N162   1.438       .  S
C156        C157   1.404       .  A
C156        H161   1.084       .  S
C157        C158   1.419       .  A
C158        N159   1.440       .  S
N159        H163   1.046       .  S
N159        H164   1.041       .  S
N162        H165   1.045       .  S
N162        H166   1.046       .  S
C167        C168   1.406       .  A
C167        C172   1.406       .  A
C167        H174   1.084       .  S
C168        C169   1.415       .  A
C169        C170   1.405       .  A
C169        N176   1.439       .  S
C170        C171   1.410       .  A
C170        H175   1.076       .  S
C171        C172   1.416       .  A
C172        N173   1.433       .  S
N173        H177   1.046       .  S
N173        H178   1.045       .  S
N176        H179   1.045       .  S
N176        H180   1.046       .  S
C181        C182   1.400       .  A
C181        C186   1.401       .  A
C181        H188   1.081       .  S
C182        C183   1.417       .  A
C183        C184   1.402       .  A
C183        N190   1.439       .  S
C184        C185   1.401       .  A
C184        H189   1.084       .  S
C185        C186   1.404       .  A
C186        N187   1.438       .  S
N187        H191   1.046       .  S
N187        H192   1.045       .  S
N190        H193   1.043       .  S
N190        H194   1.044       .  S
C195        C196   1.395       .  A
C195        C200   1.401       .  A
C195        H202   1.085       .  S
C196        C197   1.408       .  A
C197        C198   1.412       .  A
C197        N204   1.438       .  S
C198        C199   1.411       .  A
C198        H203   1.077       .  S
C199        C200   1.423       .  A
C200        N201   1.434       .  S
N201        H205   1.046       .  S
N201        H206   1.046       .  S
N204        H207   1.045       .  S
N204        H208   1.046       .  S
C209        C210   1.402       .  A
C209        C214   1.403       .  A
C209        H216   1.085       .  S
C210        C211   1.413       .  A
C211        C212   1.396       .  A
C211        N218   1.433       .  S
C212        C213   1.403       .  A
C212        H217   1.084       .  S
C213        C214   1.412       .  A
C214        N215   1.431       .  S
N215        H219   1.044       .  S
N215        H220   1.046       .  S
N218        H221   1.046       .  S
N218        H222   1.042       .  S
C223        C224   1.400       .  A
C223        C228   1.400       .  A
C223        H230   1.084       .  S
C224        C225   1.406       .  A
C225        C226   1.400       .  A
C225        N232   1.433       .  S
C226        C227   1.401       .  A
C226        H231   1.079       .  S
C227        C228   1.407       .  A
C228        N229   1.432       .  S
N229        H233   1.045       .  S
N229        H234   1.046       .  S
N232        H235   1.045       .  S
N232        H236   1.046       .  S
C237        C238   1.402       .  A
C237        C242   1.401       .  A
C237        H244   1.084       .  S
C238        C239   1.420       .  A
C239        C240   1.407       .  A
C239        N246   1.439       .  S
C240        C241   1.404       .  A
C240        H245   1.084       .  S
C241        C242   1.411       .  A
C242        N243   1.437       .  S
N243        H247   1.045       .  S
N243        H248   1.044       .  S
N246        H249   1.041       .  S
N246        H250   1.046       .  S
C251        C252   1.411       .  A
C251        C256   1.406       .  A
C251        H258   1.076       .  S
C252        C253   1.420       .  A
C253        C254   1.406       .  A
C253        N260   1.439       .  S
C254        C255   1.402       .  A
C254        H259   1.083       .  S
C255        C256   1.413       .  A
C256        N257   1.438       .  S
N257        H261   1.045       .  S
N257        H262   1.045       .  S
N260        H263   1.044       .  S
N260        H264   1.046       .  S
C265        C266   1.403       .  A
C265        C270   1.400       .  A
C265        H272   1.084       .  S
C266        C267   1.412       .  A
C267        C268   1.408       .  A
C267        N274   1.437       .  S
C268        C269   1.404       .  A
C268        H273   1.083       .  S
C269        C270   1.409       .  A
C270        N271   1.433       .  S
N271        H275   1.046       .  S
N271        H276   1.045       .  S
N274        H277   1.046       .  S
N274        H278   1.046       .  S
C279        C280   1.411       .  A
C279        C284   1.406       .  A
C279        H286   1.076       .  S
C280        C281   1.422       .  A
C281        C282   1.404       .  A
C281        N288   1.434       .  S
C282        C283   1.396       .  A
C282        H287   1.084       .  S
C283        C284   1.406       .  A
C284        N285   1.439       .  S
N285        H289   1.046       .  S
N285        H290   1.045       .  S
N288        H291   1.046       .  S
N288        H292   1.045       .  S
C293        C294   1.401       .  A
C293        C298   1.400       .  A
C293        H300   1.084       .  S
C294        C295   1.415       .  A
C295        C296   1.398       .  A
C295        N302   1.433       .  S
C296        C297   1.402       .  A
C296        H301   1.084       .  S
C297        C298   1.408       .  A
C298        N299   1.431       .  S
N299        H303   1.045       .  S
N299        H304   1.046       .  S
N302        H305   1.045       .  S
N302        H306   1.043       .  S
C307        C308   1.401       .  A
C307        C312   1.396       .  A
C307        H314   1.079       .  S
C308        C309   1.413       .  A
C309        C310   1.413       .  A
C309        N316   1.437       .  S
C310        C311   1.411       .  A
C310        H315   1.083       .  S
C311        C312   1.412       .  A
C312        N313   1.429       .  S
N313        H317   1.046       .  S
N313        H318   1.046       .  S
N316        H319   1.046       .  S
N316        H320   1.045       .  S
C321        C322   1.406       .  A
C321        C326   1.407       .  A
C321        H328   1.083       .  S
C322        C323   1.409       .  A
C323        C324   1.401       .  A
C323        N330   1.433       .  S
C324        C325   1.411       .  A
C324        H329   1.079       .  S
C325        C326   1.418       .  A
C326        N327   1.438       .  S
N327        H331   1.045       .  S
N327        H332   1.046       .  S
N330        H737   1.046       .  S
N330        H738   1.045       .  S
H333        N734   1.045       .  S
H334        N734   1.046       .  S
C335        C336   1.400       .  A
C335        C340   1.397       .  A
C335        H342   1.085       .  S
C336        C337   1.417       .  A
C337        C338   1.401       .  A
C337        N344   1.439       .  S
C338        C339   1.401       .  A
C338        H343   1.084       .  S
C339        C340   1.413       .  A
C340        N341   1.438       .  S
N341        H345   1.045       .  S
N341        H346   1.043       .  S
N344        H347   1.042       .  S
N344        H348   1.045       .  S
C349        C350   1.412       .  A
C349        C354   1.415       .  A
C349        H356   1.082       .  S
C350        C351   1.413       .  A
C351        C352   1.395       .  A
C351        N358   1.431       .  S
C352        C353   1.402       .  A
C352        H357   1.075       .  S
C353        C354   1.415       .  A
C354        N355   1.436       .  S
N355        H359   1.046       .  S
N355        H360   1.045       .  S
N358        H361   1.046       .  S
N358        H362   1.046       .  S
C363        C364   1.398       .  A
C363        C368   1.399       .  A
C363        H370   1.084       .  S
C364        C365   1.409       .  A
C365        C366   1.405       .  A
C365        N372   1.439       .  S
C366        C367   1.414       .  A
C366        H371   1.073       .  S
C367        C368   1.432       .  A
C368        N369   1.436       .  S
N369        H373   1.042       .  S
N369        H374   1.041       .  S
N372        H375   1.045       .  S
N372        H376   1.046       .  S
C377        C378   1.408       .  A
C377        C382   1.408       .  A
C377        H384   1.084       .  S
C378        C379   1.418       .  A
C379        C380   1.395       .  A
C379        N386   1.429       .  S
C380        C381   1.397       .  A
C380        H385   1.085       .  S
C381        C382   1.410       .  A
C382        N383   1.438       .  S
N383        H387   1.045       .  S
N383        H388   1.046       .  S
N386        H389   1.040       .  S
N386        H390   1.043       .  S
C391        C392   1.401       .  A
C391        C396   1.402       .  A
C391        H398   1.081       .  S
C392        C393   1.414       .  A
C393        C394   1.401       .  A
C393        N400   1.438       .  S
C394        C395   1.400       .  A
C394        H399   1.084       .  S
C395        C396   1.416       .  A
C396        N397   1.439       .  S
N397        H401   1.046       .  S
N397        H402   1.042       .  S
N400        H403   1.043       .  S
N400        H404   1.045       .  S
C405        C406   1.553       .  S
C405        C411   1.538       .  S
C405        C409   1.540       .  S
C405        C771   1.544       .  S
C406        H413   1.080       .  S
C406        C407   1.371       .  D
C407        C408   1.545       .  S
C407        C782   1.500       .  S
C408        C412   1.542       .  S
C408        C410   1.541       .  S
C408        H414   1.108       .  S
C409        H415   1.085       .  S
C409        C410   1.364       .  D
C410        C754   1.490       .  S
C411        H416   1.086       .  S
C411        C412   1.358       .  D
C412        C796   1.482       .  S
C417        C418   1.545       .  S
C417        C423   1.540       .  S
C417        C421   1.552       .  S
C417        C729   1.539       .  S
C418        H425   1.083       .  S
C418        C419   1.352       .  D
C419        C420   1.531       .  S
C419        C743   1.475       .  S
C420        C424   1.530       .  S
C420        C422   1.540       .  S
C420        H426   1.110       .  S
C421        H427   1.085       .  S
C421        C422   1.376       .  D
C422        C712   1.491       .  S
C423        H428   1.086       .  S
C423        C424   1.364       .  D
C424        C785   1.484       .  S
C429        C430   1.533       .  S
C429        C435   1.541       .  S
C429        C433   1.549       .  S
C429        C684   1.532       .  S
C430        H437   1.087       .  S
C430        C431   1.357       .  D
C431        C432   1.536       .  S
C431        C799   1.474       .  S
C432        C436   1.535       .  S
C432        C434   1.532       .  S
C432        H438   1.111       .  S
C433        H439   1.081       .  S
C433        C434   1.369       .  D
C434        C670   1.479       .  S
C435        H440   1.084       .  S
C435        C436   1.366       .  D
C436        C698   1.484       .  S
C441        C442   1.553       .  S
C441        C447   1.541       .  S
C441        C445   1.544       .  S
C441        C656   1.545       .  S
C442        H449   1.082       .  S
C442        C443   1.368       .  D
C443        C444   1.531       .  S
C443        C701   1.485       .  S
C444        C448   1.529       .  S
C444        C446   1.535       .  S
C444        H450   1.111       .  S
C445        H451   1.086       .  S
C445        C446   1.371       .  D
C446        C642   1.487       .  S
C447        H452   1.086       .  S
C447        C448   1.360       .  D
C448        C740   1.473       .  S
C453        C454   1.539       .  S
C453        C459   1.540       .  S
C453        C457   1.552       .  S
C453        C603   1.539       .  S
C454        H461   1.085       .  S
C454        C455   1.365       .  D
C455        C456   1.537       .  S
C455        C631   1.492       .  S
C456        C460   1.527       .  S
C456        C458   1.537       .  S
C456        H462   1.111       .  S
C457        H463   1.081       .  S
C457        C458   1.368       .  D
C458        C757   1.483       .  S
C459        H464   1.086       .  S
C459        C460   1.365       .  D
C460        C614   1.476       .  S
C465        C466   1.545       .  S
C465        C471   1.538       .  S
C465        C469   1.545       .  S
C465        C575   1.539       .  S
C466        H473   1.079       .  S
C466        C467   1.361       .  D
C467        C468   1.529       .  S
C467        C617   1.480       .  S
C468        C472   1.537       .  S
C468        C470   1.546       .  S
C468        H474   1.107       .  S
C469        H475   1.086       .  S
C469        C470   1.372       .  D
C470        C715   1.498       .  S
C471        H476   1.086       .  S
C471        C472   1.361       .  D
C472        C586   1.479       .  S
C477        C478   1.535       .  S
C477        C483   1.541       .  S
C477        C481   1.547       .  S
C477        C544   1.527       .  S
C478        H485   1.087       .  S
C478        C479   1.360       .  D
C479        C480   1.529       .  S
C479        C558   1.472       .  S
C480        C484   1.532       .  S
C480        C482   1.532       .  S
C480        H486   1.108       .  S
C481        H487   1.081       .  S
C481        C482   1.365       .  D
C482        C673   1.478       .  S
C483        H488   1.086       .  S
C483        C484   1.366       .  D
C484        C628   1.481       .  S
C489        C490   1.539       .  S
C489        C495   1.547       .  S
C489        C493   1.545       .  S
C489        C533   1.538       .  S
C490        H497   1.086       .  S
C490        C491   1.361       .  D
C491        C492   1.533       .  S
C491        C589   1.472       .  S
C492        C496   1.531       .  S
C492        C494   1.532       .  S
C492        H498   1.111       .  S
C493        H499   1.085       .  S
C493        C494   1.366       .  D
C494        C645   1.484       .  S
C495        H500   1.079       .  S
C495        C496   1.361       .  D
C496        C561   1.476       .  S
O501        V509   1.895       .  S
O501        C511   1.262       .  A
O502        C512   1.264       .  A
O503        C513   1.264       .  A
O504        V509   1.902   1_455  S
O504        C514   1.265       .  A
O505        V510   1.899   1_455  S
O505        C514   1.265       .  A
O506        C513   1.262       .  A
O507        C512   1.263       .  A
O508        V510   1.893       .  S
O508        C511   1.261       .  A
V509        V510   2.087       .  T
C511        C547   1.459       .  S
C512        C726   1.475       .  S
C513        C687   1.465       .  S
C514        C572   1.483       .  S
O515        C525   1.264       .  A
O516        V523   1.902       .  S
O516        C526   1.264       .  A
O517        V523   1.900   1_565  S
O517        C527   1.265       .  A
O518        C528   1.265       .  A
O519        C528   1.263       .  A
O520        V524   1.889   1_565  S
O520        C527   1.262       .  A
O521        V524   1.903       .  S
O521        C526   1.264       .  A
O522        C525   1.269       .  A
V523        V524   2.086       .  T
C525        C659   1.495       .  S
C526        C600   1.473       .  S
C527        C530   1.474       .  S
C528        C768   1.480       .  S
C529        C530   1.399       .  A
C529        C534   1.396       .  A
C529        H536   1.084       .  S
C530        C531   1.405       .  A
C531        C532   1.402       .  A
C531        N538   1.439       .  S
C532        C533   1.416       .  A
C532        H537   1.072       .  S
C533        C534   1.427       .  A
C534        N535   1.435       .  S
N535        H539   1.043       .  S
N535        H540   1.041       .  S
N538        H541   1.045       .  S
N538        H542   1.045       .  S
C543        C544   1.412       .  A
C543        C548   1.400       .  A
C543        H550   1.076       .  S
C544        C545   1.417       .  A
C545        C546   1.396       .  A
C545        N552   1.434       .  S
C546        C547   1.395       .  A
C546        H551   1.085       .  S
C547        C548   1.410       .  A
C548        N549   1.439       .  S
N549        H553   1.046       .  S
N549        H554   1.044       .  S
N552        H555   1.046       .  S
N552        H556   1.046       .  S
C557        C558   1.399       .  A
C557        C562   1.396       .  A
C557        H564   1.084       .  S
C558        C559   1.408       .  A
C559        C560   1.402       .  A
C559        N566   1.438       .  S
C560        C561   1.403       .  A
C560        H565   1.084       .  S
C561        C562   1.421       .  A
C562        N563   1.441       .  S
N563        H567   1.046       .  S
N563        H568   1.041       .  S
N566        H569   1.046       .  S
N566        H570   1.045       .  S
C571        C572   1.403       .  A
C571        C576   1.405       .  A
C571        H578   1.084       .  S
C572        C573   1.409       .  A
C573        C574   1.404       .  A
C573        N580   1.439       .  S
C574        C575   1.414       .  A
C574        H579   1.072       .  S
C575        C576   1.416       .  A
C576        N577   1.433       .  S
N577        H581   1.046       .  S
N577        H582   1.046       .  S
N580        H583   1.045       .  S
N580        H584   1.046       .  S
C585        C586   1.401       .  A
C585        C590   1.403       .  A
C585        H592   1.079       .  S
C586        C587   1.418       .  A
C587        C588   1.403       .  A
C587        N594   1.439       .  S
C588        C589   1.400       .  A
C588        H593   1.084       .  S
C589        C590   1.404       .  A
C590        N591   1.438       .  S
N591        H595   1.045       .  S
N591        H596   1.046       .  S
N594        H597   1.044       .  S
N594        H598   1.044       .  S
C599        C600   1.396       .  A
C599        C604   1.402       .  A
C599        H606   1.084       .  S
C600        C601   1.407       .  A
C601        C602   1.410       .  A
C601        N608   1.438       .  S
C602        C603   1.412       .  A
C602        H607   1.077       .  S
C603        C604   1.421       .  A
C604        N605   1.433       .  S
N605        H609   1.045       .  S
N605        H610   1.046       .  S
N608        H611   1.046       .  S
N608        H612   1.045       .  S
C613        C614   1.404       .  A
C613        C618   1.403       .  A
C613        H620   1.084       .  S
C614        C615   1.412       .  A
C615        C616   1.395       .  A
C615        N622   1.433       .  S
C616        C617   1.403       .  A
C616        H621   1.084       .  S
C617        C618   1.408       .  A
C618        N619   1.431       .  S
N619        H623   1.044       .  S
N619        H624   1.046       .  S
N622        H625   1.046       .  S
N622        H626   1.043       .  S
C627        C628   1.401       .  A
C627        C632   1.402       .  A
C627        H634   1.084       .  S
C628        C629   1.408       .  A
C629        C630   1.400       .  A
C629        N636   1.433       .  S
C630        C631   1.404       .  A
C630        H635   1.076       .  S
C631        C632   1.415       .  A
C632        N633   1.432       .  S
N633        H637   1.046       .  S
N633        H638   1.045       .  S
N636        H639   1.045       .  S
N636        H640   1.046       .  S
C641        C642   1.404       .  A
C641        C646   1.403       .  A
C641        H648   1.084       .  S
C642        C643   1.420       .  A
C643        C644   1.407       .  A
C643        N650   1.439       .  S
C644        C645   1.403       .  A
C644        H649   1.084       .  S
C645        C646   1.409       .  A
C646        N647   1.437       .  S
N647        H651   1.045       .  S
N647        H652   1.045       .  S
N650        H653   1.041       .  S
N650        H654   1.047       .  S
C655        C656   1.410       .  A
C655        C660   1.408       .  A
C655        H662   1.077       .  S
C656        C657   1.422       .  A
C657        C658   1.410       .  A
C657        N664   1.439       .  S
C658        C659   1.404       .  A
C658        H663   1.083       .  S
C659        C660   1.416       .  A
C660        N661   1.439       .  S
N661        H665   1.045       .  S
N661        H666   1.046       .  S
N664        H667   1.045       .  S
N664        H668   1.046       .  S
C669        C670   1.404       .  A
C669        C674   1.400       .  A
C669        H676   1.084       .  S
C670        C671   1.407       .  A
C671        C672   1.400       .  A
C671        N678   1.432       .  S
C672        C673   1.404       .  A
C672        H677   1.084       .  S
C673        C674   1.408       .  A
C674        N675   1.433       .  S
N675        H679   1.046       .  S
N675        H680   1.045       .  S
N678        H681   1.046       .  S
N678        H682   1.045       .  S
C683        C684   1.413       .  A
C683        C688   1.407       .  A
C683        H690   1.076       .  S
C684        C685   1.419       .  A
C685        C686   1.399       .  A
C685        N692   1.433       .  S
C686        C687   1.395       .  A
C686        H691   1.084       .  S
C687        C688   1.406       .  A
C688        N689   1.439       .  S
N689        H693   1.045       .  S
N689        H694   1.045       .  S
N692        H695   1.045       .  S
N692        H696   1.046       .  S
C697        C698   1.401       .  A
C697        C702   1.402       .  A
C697        H704   1.084       .  S
C698        C699   1.418       .  A
C699        C700   1.400       .  A
C699        N706   1.433       .  S
C700        C701   1.402       .  A
C700        H705   1.084       .  S
C701        C702   1.410       .  A
C702        N703   1.430       .  S
N703        H707   1.044       .  S
N703        H708   1.045       .  S
N706        H709   1.046       .  S
N706        H710   1.042       .  S
C711        C712   1.398       .  A
C711        C716   1.390       .  A
C711        H718   1.078       .  S
C712        C713   1.413       .  A
C713        C714   1.416       .  A
C713        N720   1.437       .  S
C714        C715   1.413       .  A
C714        H719   1.083       .  S
C715        C716   1.409       .  A
C716        N717   1.428       .  S
N717        H721   1.046       .  S
N717        H722   1.046       .  S
N720        H723   1.046       .  S
N720        H724   1.046       .  S
C725        C726   1.403       .  A
C725        C730   1.409       .  A
C725        H732   1.084       .  S
C726        C727   1.404       .  A
C727        C728   1.401       .  A
C727        N734   1.440       .  S
C728        C729   1.416       .  A
C728        H733   1.077       .  S
C729        C730   1.419       .  A
C730        N731   1.438       .  S
N731        H735   1.046       .  S
N731        H736   1.045       .  S
C739        C740   1.401       .  A
C739        C744   1.400       .  A
C739        H746   1.085       .  S
C740        C741   1.417       .  A
C741        C742   1.399       .  A
C741        N748   1.440       .  S
C742        C743   1.400       .  A
C742        H747   1.084       .  S
C743        C744   1.415       .  A
C744        N745   1.438       .  S
N745        H749   1.046       .  S
N745        H750   1.044       .  S
N748        H751   1.042       .  S
N748        H752   1.045       .  S
C753        C754   1.408       .  A
C753        C758   1.413       .  A
C753        H760   1.083       .  S
C754        C755   1.407       .  A
C755        C756   1.396       .  A
C755        N762   1.427       .  S
C756        C757   1.395       .  A
C756        H761   1.078       .  S
C757        C758   1.412       .  A
C758        N759   1.437       .  S
N759        H763   1.045       .  S
N759        H764   1.045       .  S
N762        H765   1.045       .  S
N762        H766   1.046       .  S
C767        C768   1.397       .  A
C767        C772   1.397       .  A
C767        H774   1.084       .  S
C768        C769   1.409       .  A
C769        C770   1.408       .  A
C769        N776   1.439       .  S
C770        C771   1.415       .  A
C770        H775   1.074       .  S
C771        C772   1.431       .  A
C772        N773   1.435       .  S
N773        H777   1.043       .  S
N773        H778   1.041       .  S
N776        H779   1.045       .  S
N776        H780   1.045       .  S
C781        C782   1.409       .  A
C781        C786   1.410       .  A
C781        H788   1.084       .  S
C782        C783   1.419       .  A
C783        C784   1.398       .  A
C783        N790   1.426       .  S
C784        C785   1.398       .  A
C784        H789   1.085       .  S
C785        C786   1.410       .  A
C786        N787   1.437       .  S
N787        H791   1.046       .  S
N787        H792   1.045       .  S
N790        H793   1.044       .  S
N790        H794   1.038       .  S
C795        C796   1.399       .  A
C795        C800   1.401       .  A
C795        H802   1.080       .  S
C796        C797   1.412       .  A
C797        C798   1.403       .  A
C797        N804   1.437       .  S
C798        C799   1.402       .  A
C798        H803   1.084       .  S
C799        C800   1.414       .  A
C800        N801   1.439       .  S
N801        H805   1.047       .  S
N801        H806   1.041       .  S
N804        H807   1.044       .  S
N804        H808   1.046       .  S
