geometry optimzed in LAMMPS
_audit_creation_date              2020-11-30 
_audit_creation_method            'lammps2cif' 
_symmetry_space_group_name_H-M    'P1' 
_symmetry_Int_Tables_number       1 
_symmetry_cell_setting            triclinic 
loop_ 
_symmetry_equiv_pos_as_xyz 
  x,y,z 
_cell_length_a                    30.75203969 
_cell_length_b                    31.432702581043056 
_cell_length_c                    30.699559973834493 
_cell_angle_alpha                 89.9047517738198 
_cell_angle_beta                  90.07235390537136 
_cell_angle_gamma                 89.77375229130003 
loop_ 
_atom_site_label 
_atom_site_type_symbol 
_atom_site_fract_x 
_atom_site_fract_y 
_atom_site_fract_z 
_atom_site_charge 
O1          O  0.42932711  0.89929002  0.46311617    -0.57200
C2          C  0.45046128  0.85725808  0.33845896     0.75400
O3          O  0.56040919  0.86670500  0.44530011    -0.58300
C4          C  0.44068230  0.89164523  0.50195631     0.75400
C5          C  0.48034492  0.75402634  0.43356173     0.77800
Cd6        Cd  0.48132318  0.84883796  0.42806537     1.37500
O7          O  0.42522672  0.86797725  0.36921407    -0.57200
O8          O  0.44595843  0.77632490  0.43168743    -0.56000
C9          C  0.55839754  0.90269760  0.42665208     0.77800
O10         O  0.51551817  0.77492162  0.43522271    -0.58400
O11         O  0.48824790  0.84525298  0.34956758    -0.56800
O12         O  0.46761461  0.86153079  0.50725077    -0.56800
O13         O  0.52286230  0.91170067  0.40820978    -0.56000
O14         O  0.41744753  0.59060494  0.36646778    -0.57200
C15         C  0.42781807  0.57077684  0.49418271     0.75400
O16         O  0.53631975  0.56928452  0.39181861    -0.58300
C17         C  0.44178040  0.60210119  0.33530211     0.75400
C18         C  0.47917789  0.70643654  0.43220047     0.77800
Cd19       Cd  0.47525560  0.61183763  0.42368712     1.37500
O20         O  0.42699960  0.55599457  0.45583635    -0.57200
O21         O  0.44387705  0.68625080  0.42811295    -0.56000
C22         C  0.55470787  0.55992968  0.42735326     0.77800
O23         O  0.51314775  0.68349521  0.43365120    -0.58400
O24         O  0.44749786  0.60568271  0.49918113    -0.56800
O25         O  0.47937452  0.61467612  0.34581087    -0.56800
O26         O  0.53902793  0.57725142  0.46100737    -0.56000
O27         O  0.43652499  0.90628820  0.07651188    -0.57200
C28         C  0.41912142  0.92146094  0.18852035     0.75400
O29         O  0.43781493  0.02726593  0.14549767    -0.58300
C30         C  0.42558808  0.91470149  0.03774496     0.75400
C31         C  0.30641617  0.97265302  0.10705526     0.77800
Cd32       Cd  0.39932792  0.96793633  0.11058629     1.37500
O33         O  0.44492385  0.92519919  0.15663426    -0.57200
O34         O  0.32700462  0.93793758  0.10961583    -0.56000
C35         C  0.45422626  0.04133172  0.11066517     0.77800
O36         O  0.32874179  0.00641189  0.10538843    -0.58400
O37         O  0.38518991  0.94426635  0.18753912    -0.56800
O38         O  0.40169654  0.94715165  0.03229329    -0.56800
O39         O  0.44126108  0.02485468  0.07549791    -0.56000
O40         O  0.12649332  0.90950953  0.07653614    -0.57200
C41         C  0.13736345  0.93020142  0.18909600     0.75400
O42         O  0.23688121  0.00695443  0.10554803    -0.58300
C43         C  0.13500639  0.91894385  0.03742399     0.75400
C44         C  0.11775716  0.04712526  0.10834141     0.77800
Cd45       Cd  0.16604466  0.97006386  0.10959315     1.37500
O46         O  0.11155772  0.94341260  0.15991103    -0.57200
O47         O  0.13825584  0.03509499  0.14192031    -0.56000
C48         C  0.25894194  0.97288545  0.10688746     0.77800
O49         O  0.12483563  0.02709296  0.07340662    -0.58400
O50         O  0.17709254  0.93905754  0.18404429    -0.56800
O51         O  0.15961190  0.95055850  0.03148841    -0.56800
O52         O  0.23809668  0.93836615  0.10880110    -0.56000
O53         O  0.41208892  0.55857276  0.07157623    -0.57200
C54         C  0.40422376  0.53869614  0.18497409     0.75400
O55         O  0.30613075  0.45999540  0.10930461    -0.58300
C56         C  0.40643782  0.54687597  0.03262339     0.75400
C57         C  0.43152989  0.42261680  0.11081821     0.77800
Cd58       Cd  0.37763836  0.49619258  0.10677221     1.37500
O59         O  0.42872422  0.53180178  0.15260095    -0.57200
O60         O  0.41971717  0.44314293  0.14400671    -0.56000
C61         C  0.28479659  0.49455300  0.10792816     0.77800
O62         O  0.41314238  0.43175538  0.07507867    -0.58400
O63         O  0.36676598  0.52229562  0.18354660    -0.56800
O64         O  0.38599246  0.51240893  0.02726813    -0.56800
O65         O  0.30632595  0.52857880  0.10543619    -0.56000
O66         O  0.10293675  0.56097388  0.07571927    -0.57200
C67         C  0.12188126  0.54961312  0.18875861     0.75400
O68         O  0.10988456  0.44151445  0.14628707    -0.58300
C69         C  0.11888553  0.55629566  0.03810165     0.75400
C70         C  0.23739528  0.49607793  0.10929890     0.77800
Cd71       Cd  0.14485592  0.50315760  0.11192289     1.37500
O72         O  0.09583739  0.54210290  0.15783625    -0.57200
O73         O  0.21771363  0.53141859  0.10805889    -0.56000
C74         C  0.09302116  0.42806149  0.11142972     0.77800
O75         O  0.21427506  0.46291343  0.11189424    -0.58400
O76         O  0.15860346  0.53147088  0.18710314    -0.56800
O77         O  0.14766725  0.52766909  0.03420425    -0.56800
O78         O  0.10433179  0.44610461  0.07644730    -0.56000
O79         O  0.12148142  0.88149197  0.36825173    -0.57200
C80         C  0.11569904  0.89645636  0.49763977     0.75400
O81         O  0.00871518  0.90322559  0.39557284    -0.58300
C82         C  0.09818438  0.86525245  0.33850804     0.75400
C83         C  0.06470483  0.76352426  0.43505704     0.77800
Cd84       Cd  0.06723076  0.85754645  0.42737708     1.37500
O85         O  0.11955888  0.90967384  0.45883041    -0.57200
O86         O  0.09997182  0.78408776  0.43327212    -0.56000
C87         C  0.98858988  0.91064462  0.43053182     0.77800
O88         O  0.03034637  0.78593902  0.43523000    -0.58400
O89         O  0.09240607  0.86385059  0.50323632    -0.56000
O90         O  0.06290662  0.84852598  0.35072719    -0.56800
O91         O  0.00231946  0.89111074  0.46388064    -0.56000
O92         O  0.11789336  0.57361018  0.46193065    -0.57200
C93         C  0.09185739  0.61611861  0.33699083     0.75400
O94         O  0.98352454  0.60527619  0.44396811    -0.58300
C95         C  0.10477660  0.57908673  0.50059256     0.75400
C96         C  0.06387344  0.71609906  0.43508125     0.77800
Cd97       Cd  0.06288259  0.62208110  0.42712153     1.37500
O98         O  0.11782372  0.60502037  0.36707627    -0.57200
O99         O  0.09841074  0.69402679  0.43378448    -0.56000
C100        C  0.98538882  0.56880734  0.42646210     0.77800
O101        O  0.02871725  0.69519262  0.43483917    -0.58400
O102        O  0.05414541  0.62737449  0.34885861    -0.56800
O103        O  0.07521720  0.60672193  0.50572916    -0.56800
O104        O  0.02101054  0.55903403  0.40864373    -0.56000
C105        C  0.42701139  0.64676677  0.22138279     0.87100
C106        C  0.43625034  0.60534370  0.19903287    -0.53100
C107        C  0.41701312  0.57081462  0.21755582     0.10000
C108        C  0.39364203  0.58118479  0.26173668     0.21000
C109        C  0.37713899  0.64888792  0.22769845    -0.53800
C110        C  0.35935678  0.61500834  0.24909076     0.10100
C111        C  0.44400244  0.64090557  0.26745480    -0.53400
C112        C  0.42758957  0.60690287  0.28920028     0.10700
H113        H  0.45107959  0.60494599  0.16686015     0.15200
H114        H  0.38044069  0.55303899  0.27902929     0.01000
H115        H  0.35734037  0.67553090  0.21684106     0.15500
H116        H  0.46545233  0.66349352  0.28322552     0.15300
C117        C  0.10616946  0.66056627  0.22258336     0.87100
C118        C  0.15621979  0.65983051  0.22827480    -0.53100
C119        C  0.17231541  0.62503595  0.24974811     0.10000
C120        C  0.13658706  0.59345486  0.26310492     0.21000
C121        C  0.09471884  0.61940043  0.20052822    -0.53800
C122        C  0.11200398  0.58402276  0.21966339     0.10100
C123        C  0.08941444  0.65588077  0.26907893    -0.53400
C124        C  0.10462298  0.62108068  0.29069662     0.10700
H125        H  0.17733509  0.68490593  0.21649707     0.15200
H126        H  0.14872898  0.56469358  0.28035038     0.01000
H127        H  0.07970427  0.61924583  0.16841107     0.15500
H128        H  0.06919667  0.67946655  0.28513180     0.15300
C129        C  0.11143542  0.82244819  0.22369959     0.87100
C130        C  0.10314442  0.86449262  0.20161602    -0.53100
C131        C  0.12254821  0.89842492  0.22105116     0.10000
C132        C  0.14532177  0.88695434  0.26517725     0.21000
C133        C  0.16125913  0.81943703  0.23080135    -0.53800
C134        C  0.17915335  0.85304180  0.25248348     0.10100
C135        C  0.09388719  0.82804796  0.26956616    -0.53400
C136        C  0.11101701  0.86129306  0.29201786     0.10700
H137        H  0.08920567  0.86581995  0.16902371     0.15200
H138        H  0.15898451  0.91465058  0.28284349     0.01000
H139        H  0.18087348  0.79269093  0.22000459     0.15500
H140        H  0.07168825  0.80569066  0.28463525     0.15300
C141        C  0.43051671  0.80988353  0.22668557     0.87100
C142        C  0.38119209  0.81095867  0.23567573    -0.53100
C143        C  0.36627173  0.84718212  0.25518718     0.10000
C144        C  0.40301925  0.87922848  0.26498454     0.21000
C145        C  0.44044600  0.84958251  0.20142581    -0.53800
C146        C  0.42542537  0.88617992  0.21970739     0.10100
C147        C  0.45059779  0.81688854  0.27141779    -0.53400
C148        C  0.43651580  0.85247381  0.29234088     0.10700
H149        H  0.35959362  0.78505881  0.22704381     0.15200
H150        H  0.39187000  0.90885560  0.28118431     0.01000
H151        H  0.45409901  0.84796163  0.16878207     0.15500
H152        H  0.47176961  0.79387333  0.28726042     0.15300
O153        O  0.91021471  0.41749266  0.37123042    -0.57200
C154        C  0.91886857  0.41874515  0.50228458     0.75400
O155        O  0.91315243  0.54371633  0.44558823    -0.58300
C156        C  0.89497485  0.43951573  0.34012228     0.75400
C157        C  0.79083333  0.46729814  0.43408190     0.77800
Cd158      Cd  0.88694212  0.46856205  0.42870179     1.37500
O159        O  0.91898392  0.40414740  0.46389139    -0.57200
O160        O  0.81438962  0.43430687  0.43575073    -0.56000
C161        C  0.94967270  0.53757816  0.42726955     0.77800
O162        O  0.81110579  0.50231868  0.43140651    -0.58400
O163        O  0.90329546  0.45582154  0.50703978    -0.56800
O164        O  0.87938077  0.47561935  0.34978475    -0.56800
O165        O  0.95541223  0.50158735  0.41004718    -0.56000
O166        O  0.59435973  0.41273797  0.47750349    -0.57200
C167        C  0.62072599  0.39368205  0.36646255     0.75400
O168        O  0.60423311  0.50955560  0.39590834    -0.58300
C169        C  0.61381773  0.41331418  0.51372769     0.75400
C170        C  0.74255961  0.46403544  0.43464683     0.77800
Cd171      Cd  0.64669461  0.45350519  0.43493034     1.37500
O172        O  0.62475574  0.38385755  0.40618238    -0.57200
O173        O  0.72394888  0.42849038  0.43873672    -0.56000
C174        C  0.58976663  0.52776731  0.42967347     0.77800
O175        O  0.71740806  0.49576238  0.43046883    -0.58400
O176        O  0.63046088  0.43164086  0.35671153    -0.56800
O177        O  0.64944868  0.43341743  0.51492906    -0.56800
O178        O  0.60461254  0.51450509  0.46568529    -0.56000
O179        O  0.93845684  0.40914341  0.07597967    -0.57200
C180        C  0.92817647  0.37401706  0.18868101     0.75400
O181        O  0.01948173  0.28233249  0.10876380    -0.58300
C182        C  0.93762093  0.39303062  0.03832824     0.75400
C183        C  0.05816317  0.39678583  0.11186837     0.77800
Cd184      Cd  0.97837161  0.35088907  0.11243731     1.37500
O185        O  0.91175697  0.36640089  0.15168929    -0.57200
O186        O  0.03945719  0.38588926  0.07699725    -0.56000
C187        C  0.98697279  0.25820628  0.11264748     0.77800
O188        O  0.04238467  0.38294708  0.14718366    -0.58400
O189        O  0.96919050  0.37174047  0.19119886    -0.56800
O190        O  0.95407091  0.35617571  0.03454123    -0.56800
O191        O  0.95034379  0.27641622  0.11509034    -0.56000
O192        O  0.95770990  0.05835819  0.09535102    -0.57200
C193        C  0.98600743  0.11124285  0.21762942     0.75400
O194        O  0.05948694  0.08877878  0.07944052    -0.58300
C195        C  0.94832297  0.07753613  0.06012210     0.75400
C196        C  0.99160605  0.21159201  0.11535456     0.77800
Cd197      Cd  0.00078374  0.12002756  0.12522802     1.37500
O198        O  0.95885249  0.09499898  0.19125643    -0.57200
O199        O  0.95990526  0.18810342  0.12555554    -0.56000
C200        C  0.08269275  0.07820510  0.11171445     0.77800
O201        O  0.02757837  0.19296329  0.10858849    -0.58400
O202        O  0.01966087  0.12735012  0.20096221    -0.56800
O203        O  0.96007575  0.11591405  0.05725033    -0.56800
O204        O  0.07068184  0.09135963  0.14849468    -0.56000
O205        O  0.60312676  0.40097731  0.09215305    -0.57200
C206        C  0.56494744  0.35252372  0.21375049     0.75400
O207        O  0.47743461  0.36566255  0.08588461    -0.58300
C208        C  0.59692573  0.39044305  0.05278125     0.75400
C209        C  0.55683002  0.25658221  0.11323517     0.77800
Cd210      Cd  0.54883757  0.34806665  0.12138997     1.37500
O211        O  0.59199438  0.36908653  0.18749690    -0.57200
O212        O  0.58976721  0.28030406  0.11709507    -0.56000
C213        C  0.46863264  0.39385435  0.11394055     0.77800
O214        O  0.52015019  0.27498291  0.11179473    -0.58400
O215        O  0.53093601  0.33688811  0.19710153    -0.56800
O216        O  0.57117553  0.35989891  0.04625179    -0.56800
O217        O  0.49547077  0.39875763  0.14455756    -0.56000
O218        O  0.63736464  0.10756401  0.15122221    -0.57200
C219        C  0.61086897  0.07607345  0.03835217     0.75400
O220        O  0.50774966  0.08293421  0.14657366    -0.58300
C221        C  0.62126905  0.09629830  0.18733562     0.75400
C222        C  0.56102965  0.20998385  0.11149508     0.77800
Cd223      Cd  0.56995387  0.11763538  0.11169090     1.37500
O224        O  0.61134801  0.06019017  0.07617465    -0.57200
O225        O  0.59768204  0.19184101  0.10958166    -0.56000
C226        C  0.48998135  0.07173295  0.11122625     0.77800
O227        O  0.52830433  0.18585125  0.11268756    -0.58400
O228        O  0.59287739  0.11217800  0.03425409    -0.56800
O229        O  0.58025909  0.09411894  0.18904948    -0.56800
O230        O  0.50713749  0.08477116  0.07627840    -0.56000
O231        O  0.95016956  0.05665479  0.48183271    -0.57200
C232        C  0.92581032  0.07622950  0.37005903     0.75400
O233        O  0.94123671  0.96308696  0.39912684    -0.58300
C234        C  0.92955313  0.05795996  0.51729296     0.75400
C235        C  0.80135740  0.00831619  0.43505539     0.77800
Cd236      Cd  0.89739855  0.01772357  0.43829595     1.37500
O237        O  0.92358877  0.08628452  0.40984741    -0.57200
O238        O  0.82037018  0.04372673  0.43131585    -0.56000
C239        C  0.95368857  0.94297938  0.43265395     0.77800
O240        O  0.82613016  0.97642291  0.44006724    -0.58400
O241        O  0.91331816  0.03898777  0.36058541    -0.56800
O242        O  0.89260239  0.04026681  0.51754229    -0.56800
O243        O  0.93690846  0.95442934  0.46837858    -0.56000
O244        O  0.63361957  0.05025219  0.36664827    -0.57200
C245        C  0.62741771  0.05263804  0.49975064     0.75400
O246        O  0.63104033  0.92779813  0.44380848    -0.58300
C247        C  0.65257002  0.02894038  0.33717902     0.75400
C248        C  0.75310137  0.00508176  0.43327316     0.77800
Cd249      Cd  0.65741991  0.00256684  0.42647776     1.37500
O250        O  0.62596852  0.06736154  0.46135216    -0.57200
O251        O  0.72969015  0.03785474  0.42803835    -0.56000
C252        C  0.59396214  0.93410982  0.42664311     0.77800
O253        O  0.73276928  0.97009815  0.43653914    -0.58400
O254        O  0.64345722  0.01576699  0.50423290    -0.56800
O255        O  0.66977041  0.99393650  0.34851982    -0.56800
O256        O  0.58777219  0.97020009  0.40958034    -0.56000
C257        C  0.59570753  0.28847929  0.30984751     0.87100
C258        C  0.64052951  0.29334652  0.28791372    -0.53100
C259        C  0.65019341  0.33358313  0.27507248     0.10000
C260        C  0.61421485  0.36562003  0.28395245     0.21000
C261        C  0.59595750  0.32111571  0.34678796    -0.53800
C262        C  0.60688060  0.36141846  0.33385067     0.10100
C263        C  0.56319349  0.30708680  0.27692196    -0.53400
C264        C  0.57443366  0.34599358  0.26066244     0.10700
H265        H  0.66456059  0.26788296  0.28683097     0.15200
H266        H  0.62206787  0.39844692  0.27313744     0.01000
H267        H  0.59115897  0.31250322  0.38069618     0.15500
H268        H  0.53701435  0.28902300  0.26246640     0.15300
C269        C  0.71751143  0.09433274  0.26499173     0.87100
C270        C  0.69347618  0.09352203  0.22151753    -0.53100
C271        C  0.64965315  0.08836529  0.22542312     0.10000
C272        C  0.63390352  0.08340196  0.27329020     0.21000
C273        C  0.69401593  0.12939822  0.29122802    -0.53800
C274        C  0.65016850  0.12395186  0.29547084     0.10100
C275        C  0.70521516  0.05237730  0.28655044    -0.53400
C276        C  0.66187854  0.04759682  0.29415453     0.10700
H277        H  0.70848387  0.09925189  0.19023104     0.15200
H278        H  0.59842372  0.07789881  0.27645678     0.01000
H279        H  0.71066033  0.15747273  0.30323688     0.15500
H280        H  0.72963949  0.03227365  0.30205553     0.15300
C281        C  0.95485709  0.17857473  0.30881545     0.87100
C282        C  0.91099623  0.17363183  0.28487231    -0.53100
C283        C  0.90053591  0.13298726  0.27444573     0.10000
C284        C  0.93525784  0.10070134  0.28691888     0.21000
C285        C  0.95143912  0.14821553  0.34788454    -0.53800
C286        C  0.94047580  0.10739788  0.33674306     0.10100
C287        C  0.98884623  0.15679344  0.27996058    -0.53400
C288        C  0.97670066  0.11785024  0.26456291     0.10700
H289        H  0.88774347  0.19958736  0.28139167     0.15200
H290        H  0.92703118  0.06754018  0.27765254     0.01000
H291        H  0.95484262  0.15847139  0.38145132     0.15500
H292        H  0.01761993  0.17256302  0.26791461     0.15300
C293        C  0.83206509  0.37453216  0.26598965     0.87100
C294        C  0.85594624  0.37723988  0.22260691    -0.53100
C295        C  0.89983833  0.38239641  0.22678123     0.10000
C296        C  0.91547003  0.38602574  0.27501395     0.21000
C297        C  0.85600899  0.33861416  0.29077163    -0.53800
C298        C  0.89954843  0.34466800  0.29577624     0.10100
C299        C  0.84366665  0.41563266  0.28905929    -0.53400
C300        C  0.88683302  0.42089305  0.29686759     0.10700
H301        H  0.84077449  0.37152307  0.19132941     0.15200
H302        H  0.95099081  0.39132662  0.27844906     0.01000
H303        H  0.84003122  0.30949197  0.30103250     0.15500
H304        H  0.81884010  0.43478246  0.30510131     0.15300
C305        C  0.93416114  0.24378200  0.35112026    -0.20700
C306        C  0.96079814  0.22593719  0.31836701    -0.08700
C307        C  0.97618705  0.25377920  0.28529997     0.30100
C308        C  0.96052051  0.29531806  0.28220011    -0.20700
C309        C  0.92833150  0.30979140  0.31053277    -0.08700
C310        C  0.91759089  0.28506532  0.34696769     0.30100
F311        F  0.88749437  0.29909457  0.37595010    -0.19300
H312        H  0.92089015  0.22405470  0.37671615     0.18500
H313        H  0.96951855  0.31410121  0.25409774     0.18500
F314        F  0.00146967  0.24021494  0.25199464    -0.19200
C315        C  0.79094734  0.10752606  0.22688751    -0.20700
C316        C  0.76627444  0.10139857  0.26515587    -0.08700
C317        C  0.78760175  0.10342012  0.30585318     0.30100
C318        C  0.83141094  0.11320599  0.30815081    -0.20700
C319        C  0.85511203  0.12060741  0.27017484    -0.08700
C320        C  0.83516649  0.11714897  0.22947838     0.30100
F321        F  0.85828033  0.12370307  0.19245397    -0.19300
H322        H  0.77682865  0.10555805  0.19485120     0.18500
H323        H  0.84668584  0.11591560  0.33982028     0.18500
F324        F  0.76567556  0.09709363  0.34370353    -0.19200
C325        C  0.71998756  0.34911114  0.30894931    -0.20700
C326        C  0.69526219  0.34683431  0.27096525    -0.08700
C327        C  0.71356478  0.35730124  0.23070328     0.30100
C328        C  0.75772666  0.36725147  0.22825594    -0.20700
C329        C  0.78352831  0.36727939  0.26627606    -0.08700
C330        C  0.76341830  0.35996827  0.30690697     0.30100
F331        F  0.78624010  0.36204341  0.34477473    -0.19300
H332        H  0.70555905  0.34210187  0.34034379     0.18500
H333        H  0.77097143  0.37487988  0.19670337     0.18500
F334        F  0.68902634  0.35716643  0.19393925    -0.19200
C335        C  0.56966098  0.21327627  0.29452645    -0.20700
C336        C  0.59062748  0.24182784  0.32298625    -0.08700
C337        C  0.62054093  0.22449153  0.35331044     0.30100
C338        C  0.63628774  0.18310369  0.34779969    -0.20700
C339        C  0.62176032  0.15814887  0.31292215    -0.08700
C340        C  0.58524901  0.17192732  0.28925895     0.30100
F341        F  0.56836984  0.14819511  0.25665505    -0.19300
H342        H  0.54488323  0.22347876  0.27189730     0.18500
H343        H  0.66324435  0.17233248  0.36781155     0.18500
F344        F  0.64038436  0.24954493  0.38321469    -0.19200
C345        C  0.25078377  0.89178974  0.25209942    -0.20700
C346        C  0.22665393  0.85515694  0.26196919    -0.08700
C347        C  0.24891709  0.81882965  0.27696037     0.30100
C348        C  0.29430760  0.81791951  0.27800962    -0.20700
C349        C  0.31879200  0.85305551  0.26394584    -0.08700
C350        C  0.29650452  0.89079695  0.25284164     0.30100
F351        F  0.31850683  0.92573321  0.23967506    -0.19300
H352        H  0.23444925  0.92047474  0.24140953     0.18500
H353        H  0.31044368  0.78882197  0.28809408     0.18500
F354        F  0.22673486  0.78365582  0.28951497    -0.19200
C355        C  0.11678823  0.71937572  0.16774908    -0.20700
C356        C  0.08916880  0.69874984  0.19743772    -0.08700
C357        C  0.05244676  0.72134159  0.21201170     0.30100
C358        C  0.05431337  0.76549437  0.21283307    -0.20700
C359        C  0.09241845  0.78558549  0.19834334    -0.08700
C360        C  0.11837137  0.76360670  0.16804859     0.30100
F361        F  0.15027681  0.78374870  0.14559931    -0.19300
H362        H  0.14190319  0.70191282  0.15062145     0.18500
H363        H  0.02926906  0.78292988  0.23003645     0.18500
F364        F  0.01834049  0.70121039  0.23091040    -0.19200
C365        C  0.41845025  0.70716304  0.16841311    -0.20700
C366        C  0.44582328  0.68400760  0.19644758    -0.08700
C367        C  0.48356111  0.70429609  0.21153987     0.30100
C368        C  0.48281249  0.74824997  0.21571180    -0.20700
C369        C  0.44535228  0.77059538  0.20262646    -0.08700
C370        C  0.41779221  0.75122684  0.17184445     0.30100
F371        F  0.38573059  0.77347396  0.15146455    -0.19300
H372        H  0.39245960  0.69156010  0.15083298     0.18500
H373        H  0.50889693  0.76367747  0.23320811     0.18500
F374        F  0.51725581  0.68178099  0.22868655    -0.19200
C375        C  0.29051390  0.65193925  0.27022224    -0.20700
C376        C  0.31173385  0.61384884  0.25881986    -0.08700
C377        C  0.28628466  0.57726498  0.25209320     0.30100
C378        C  0.24062037  0.58028980  0.25161937    -0.20700
C379        C  0.21976853  0.61960398  0.25841334    -0.08700
C380        C  0.24524533  0.65485321  0.27018123     0.30100
F381        F  0.22642612  0.69257087  0.28073955    -0.19300
H382        H  0.30913659  0.68020497  0.27766265     0.18500
H383        H  0.22176082  0.55237866  0.24364759     0.18500
F384        F  0.30516680  0.53924221  0.24335483    -0.19200
O385        O  0.42848146  0.89561886  0.96234993    -0.57200
C386        C  0.45437230  0.85942351  0.83747308     0.75400
O387        O  0.56325471  0.86593328  0.94114180    -0.58300
C388        C  0.44184692  0.88945957  0.00084450     0.75400
C389        C  0.48041630  0.75456352  0.93334194     0.77800
Cd390      Cd  0.48329172  0.84900702  0.92703165     1.37500
O391        O  0.42808039  0.86796535  0.86800523    -0.57200
O392        O  0.44649713  0.77752791  0.93204845    -0.56000
C393        C  0.55945363  0.90399128  0.92774601     0.77800
O394        O  0.51611361  0.77466202  0.93351859    -0.58400
O395        O  0.49246079  0.84866370  0.84882052    -0.56800
O396        O  0.47151160  0.86184342  0.00572727    -0.56800
O397        O  0.52235479  0.91481381  0.91398423    -0.56000
O398        O  0.41344964  0.59446052  0.86923144    -0.57200
C399        C  0.42503241  0.57098686  0.99592835     0.75400
O400        O  0.52856227  0.56408500  0.89491693    -0.58300
C401        C  0.43795639  0.60524388  0.83794678     0.75400
C402        C  0.47812453  0.70708392  0.93306903     0.77800
Cd403      Cd  0.47229473  0.61269521  0.92592660     1.37500
O404        O  0.42057551  0.55931933  0.95674113    -0.57200
O405        O  0.44223886  0.68754408  0.93152938    -0.56000
C406        C  0.55105547  0.55972228  0.92907098     0.77800
O407        O  0.51167154  0.68357078  0.93300475    -0.58400
O408        O  0.44830372  0.60347153  0.00227573    -0.56800
O409        O  0.47621069  0.61619545  0.84806905    -0.56800
O410        O  0.53933027  0.58188077  0.96136126    -0.56000
O411        O  0.43375945  0.90806369  0.57783105    -0.57200
C412        C  0.41901345  0.92388579  0.68860069     0.75400
O413        O  0.44068094  0.02665244  0.64781059    -0.58300
C414        C  0.42501528  0.91766110  0.53878238     0.75400
C415        C  0.30443633  0.97399066  0.60943764     0.77800
Cd416      Cd  0.39794463  0.97098833  0.61181292     1.37500
O417        O  0.44402030  0.92811966  0.65619357    -0.57200
O418        O  0.32608903  0.94013275  0.60481210    -0.56000
C419        C  0.45385020  0.04380542  0.61306683     0.77800
O420        O  0.32586030  0.00803539  0.61424137    -0.58400
O421        O  0.38487327  0.94642650  0.68874379    -0.56800
O422        O  0.40356667  0.95169935  0.53304602    -0.56800
O423        O  0.43682778  0.03110863  0.57792621    -0.56000
O424        O  0.13482871  0.90292335  0.57267460    -0.57200
C425        C  0.14028033  0.92062265  0.68910183     0.75400
O426        O  0.23354320  0.00553977  0.61554579    -0.58300
C427        C  0.13490328  0.91895838  0.53493743     0.75400
C428        C  0.10645870  0.03708424  0.61924069     0.77800
Cd429      Cd  0.16380290  0.96597484  0.61132446     1.37500
O430        O  0.11608824  0.92583799  0.65616339    -0.57200
O431        O  0.10888969  0.00739660  0.64667736    -0.56000
C432        C  0.25685078  0.97269135  0.60983348     0.77800
O433        O  0.13421053  0.03708118  0.58878640    -0.58400
O434        O  0.17669946  0.93931211  0.68836630    -0.56800
O435        O  0.15009425  0.95614241  0.53164003    -0.56800
O436        O  0.23719028  0.93776579  0.60503271    -0.56000
O437        O  0.40848648  0.56370919  0.56935753    -0.57200
C438        C  0.40528641  0.54229199  0.68705228     0.75400
O439        O  0.31047063  0.46135748  0.61142267    -0.58300
C440        C  0.40923384  0.54766264  0.53165064     0.75400
C441        C  0.43671641  0.42743692  0.61547682     0.77800
Cd442      Cd  0.38087667  0.49955204  0.60828192     1.37500
O443        O  0.42950701  0.53780665  0.65401429    -0.57200
O444        O  0.43292101  0.45544098  0.64448730    -0.56000
C445        C  0.28795470  0.49516096  0.60952821     0.77800
O446        O  0.41064856  0.42940549  0.58354685    -0.58400
O447        O  0.36902631  0.52344958  0.68589444    -0.56800
O448        O  0.39528896  0.50999434  0.52851026    -0.56800
O449        O  0.30836707  0.52986853  0.60701073    -0.56000
O450        O  0.10888069  0.56027696  0.57611100    -0.57200
C451        C  0.12089699  0.54329733  0.68789667     0.75400
O452        O  0.11318344  0.43649180  0.64428453    -0.58300
C453        C  0.12115853  0.55330342  0.53748620     0.75400
C454        C  0.24044366  0.49503319  0.61005594     0.77800
Cd455      Cd  0.14731739  0.49910949  0.61074303     1.37500
O456        O  0.09553929  0.53450535  0.65674644    -0.57200
O457        O  0.21951624  0.52965196  0.60869080    -0.56000
C458        C  0.09515758  0.42396171  0.60963771     0.77800
O459        O  0.21840706  0.46109991  0.61172548    -0.58400
O460        O  0.15858309  0.52715686  0.68642172    -0.56800
O461        O  0.14650740  0.52187883  0.53222914    -0.56800
O462        O  0.10612869  0.44233742  0.57470037    -0.56000
O463        O  0.12509711  0.87672281  0.87104690    -0.57200
C464        C  0.11532969  0.89585816  0.00081889     0.75400
O465        O  0.02022987  0.91343500  0.89960922    -0.58300
C466        C  0.10033100  0.86360098  0.84088409     0.75400
C467        C  0.06567708  0.76307929  0.93494333     0.77800
Cd468      Cd  0.06882420  0.85721600  0.92913419     1.37500
O469        O  0.12544097  0.90358206  0.96164467    -0.57200
O470        O  0.10107346  0.78347705  0.93605481    -0.56000
C471        C  0.99237279  0.91280022  0.92974210     0.77800
O472        O  0.03150657  0.78566364  0.93303798    -0.58400
O473        O  0.08583408  0.86859213  0.00688283    -0.56000
O474        O  0.06292339  0.85119693  0.85228729    -0.56800
O475        O  0.99767978  0.88450865  0.95868704    -0.56000
O476        O  0.12022931  0.57909352  0.96328488    -0.57200
C477        C  0.09039628  0.61386810  0.83515592     0.75400
O478        O  0.98300958  0.60479129  0.93916569    -0.58300
C479        C  0.10289106  0.58132758  0.00064219     0.75400
C480        C  0.06447933  0.71568802  0.93421551     0.77800
Cd481      Cd  0.06268757  0.62185677  0.92550561     1.37500
O482        O  0.11586852  0.60088420  0.86487594    -0.57200
O483        O  0.09882147  0.69327658  0.93472715    -0.56000
C484        C  0.98657920  0.56697563  0.92521688     0.77800
O485        O  0.02917121  0.69517967  0.93159765    -0.58400
O486        O  0.05396899  0.62815135  0.84763253    -0.56800
O487        O  0.06960863  0.60488044  0.00386149    -0.56800
O488        O  0.02344241  0.55634270  0.91071059    -0.56000
C489        C  0.42443253  0.65023919  0.72418758     0.87100
C490        C  0.43630381  0.60890658  0.70295096    -0.53100
C491        C  0.41692226  0.57402034  0.72053969     0.10000
C492        C  0.39143769  0.58405347  0.76357103     0.21000
C493        C  0.37428692  0.65089437  0.72794821    -0.53800
C494        C  0.35666378  0.61670138  0.74906711     0.10100
C495        C  0.43928657  0.64556500  0.77108348    -0.53400
C496        C  0.42339148  0.61099027  0.79218123     0.10700
H497        H  0.45290135  0.60879230  0.67165636     0.15200
H498        H  0.37853481  0.55561756  0.78058611     0.01000
H499        H  0.35422980  0.67684518  0.71590189     0.15500
H500        H  0.45976820  0.66870274  0.78737366     0.15300
C501        C  0.10220239  0.65388812  0.71866243     0.87100
C502        C  0.15240118  0.65377759  0.72352302    -0.53100
C503        C  0.16923131  0.62021757  0.74630284     0.10000
C504        C  0.13416686  0.58873354  0.76138551     0.21000
C505        C  0.09071919  0.61177007  0.69863405    -0.53800
C506        C  0.10911332  0.57732753  0.71863503     0.10100
C507        C  0.08631349  0.65072552  0.76563923    -0.53400
C508        C  0.10231373  0.61701789  0.78841692     0.10700
H509        H  0.17320667  0.67856662  0.71063151     0.15200
H510        H  0.14694621  0.56081921  0.77960520     0.01000
H511        H  0.07532524  0.61035761  0.66673326     0.15500
H512        H  0.06589230  0.67454180  0.78106229     0.15300
C513        C  0.11607657  0.81323769  0.73030292     0.87100
C514        C  0.10903642  0.85345071  0.70478212    -0.53100
C515        C  0.12801584  0.88859513  0.72202982     0.10000
C516        C  0.14940095  0.88038089  0.76749722     0.21000
C517        C  0.16560573  0.81017907  0.73884457    -0.53800
C518        C  0.18327440  0.84535908  0.75820545     0.10100
C519        C  0.09721604  0.82223309  0.77490741    -0.53400
C520        C  0.11405250  0.85690702  0.79515554     0.10700
H521        H  0.09515560  0.85251471  0.67216698     0.15200
H522        H  0.16285482  0.90922113  0.78330446     0.01000
H523        H  0.18511232  0.78278742  0.72961139     0.15500
H524        H  0.07465097  0.80100250  0.79111412     0.15300
C525        C  0.43511007  0.81249379  0.72584029     0.87100
C526        C  0.38606906  0.81161876  0.73651986    -0.53100
C527        C  0.37030524  0.84721413  0.75643147     0.10000
C528        C  0.40588459  0.88069971  0.76500381     0.21000
C529        C  0.44247795  0.85245823  0.70026540    -0.53800
C530        C  0.42658845  0.88842019  0.71911132     0.10100
C531        C  0.45644119  0.82044614  0.76981165    -0.53400
C532        C  0.44125545  0.85533825  0.79121237     0.10700
H533        H  0.36521196  0.78494711  0.72847765     0.15200
H534        H  0.39394237  0.90986863  0.78151870     0.01000
H535        H  0.45531178  0.85137717  0.66726743     0.15500
H536        H  0.47883625  0.79826169  0.78516367     0.15300
O537        O  0.91168026  0.41680738  0.86972571    -0.57200
C538        C  0.91959325  0.41687849  0.00103247     0.75400
O539        O  0.91370892  0.54243639  0.94214187    -0.58300
C540        C  0.89512773  0.43841889  0.83900836     0.75400
C541        C  0.79194404  0.46652856  0.93486200     0.77800
Cd542      Cd  0.88802913  0.46683041  0.92769802     1.37500
O543        O  0.91966175  0.40201924  0.96273910    -0.57200
O544        O  0.81495901  0.43310504  0.93506284    -0.56000
C545        C  0.95114938  0.53547129  0.92616841     0.77800
O546        O  0.81280348  0.50125423  0.93280315    -0.58400
O547        O  0.90418533  0.45403388  0.00560141    -0.56800
O548        O  0.87855766  0.47399553  0.84907357    -0.56800
O549        O  0.95788092  0.49860644  0.91139172    -0.56000
O550        O  0.60900737  0.40024193  0.97726905    -0.57200
C551        C  0.61778629  0.39846530  0.86866454     0.75400
O552        O  0.60014783  0.50860023  0.89829481    -0.58300
C553        C  0.61655653  0.41279096  0.01552378     0.75400
C554        C  0.74356641  0.46423457  0.93622339     0.77800
Cd555      Cd  0.64701039  0.45604995  0.93747887     1.37500
O556        O  0.61675427  0.39004497  0.90888085    -0.57200
O557        O  0.72410781  0.42908494  0.93955576    -0.56000
C558        C  0.58677244  0.52821798  0.93164349     0.77800
O559        O  0.71907958  0.49656152  0.93340817    -0.58400
O560        O  0.63350901  0.43441753  0.85853373    -0.56800
O561        O  0.63994325  0.44573677  0.01913529    -0.56800
O562        O  0.60373617  0.51722258  0.96751382    -0.56000
O563        O  0.93921373  0.41047487  0.57702793    -0.57200
C564        C  0.92760109  0.37065727  0.68953472     0.75400
O565        O  0.01716815  0.28060961  0.61159178    -0.58300
C566        C  0.93698984  0.39447970  0.53934219     0.75400
C567        C  0.05922131  0.39370510  0.61056346     0.77800
Cd568      Cd  0.97760769  0.35005914  0.61236000     1.37500
O569        O  0.91111981  0.36397223  0.65240372    -0.57200
O570        O  0.04026169  0.38244489  0.57593180    -0.56000
C571        C  0.98389534  0.25718492  0.61204831     0.77800
O572        O  0.04267020  0.38143753  0.64614030    -0.58400
O573        O  0.96864898  0.36898412  0.69178689    -0.56800
O574        O  0.95209579  0.35711852  0.53516662    -0.56800
O575        O  0.94763506  0.27619468  0.61085459    -0.56000
O576        O  0.93083946  0.08106821  0.59249141    -0.57200
C577        C  0.98398473  0.11418632  0.71999325     0.75400
O578        O  0.07023581  0.10297350  0.60256954    -0.58300
C579        C  0.94901353  0.07892874  0.55542984     0.75400
C580        C  0.98727689  0.21047703  0.61519720     0.77800
Cd581      Cd  0.99464918  0.11893387  0.62686387     1.37500
O582        O  0.95544119  0.09793122  0.69516141    -0.57200
O583        O  0.95425506  0.18743471  0.62178637    -0.56000
C584        C  0.07052481  0.06728058  0.62190943     0.77800
O585        O  0.02351915  0.19135636  0.61266354    -0.58400
O586        O  0.01725389  0.12951335  0.70163662    -0.56800
O587        O  0.98610045  0.09573077  0.55216154    -0.56800
O588        O  0.03697048  0.05719948  0.64323901    -0.56000
O589        O  0.61198859  0.39102286  0.58923856    -0.57200
C590        C  0.56505838  0.35452357  0.71505408     0.75400
O591        O  0.47676596  0.36545351  0.59321884    -0.58300
C592        C  0.59479351  0.39142600  0.55160782     0.75400
C593        C  0.55851131  0.25724939  0.61234819     0.77800
Cd594      Cd  0.55068436  0.34862204  0.62244498     1.37500
O595        O  0.59264458  0.37072197  0.68911845    -0.57200
O596        O  0.59154509  0.28109077  0.61345907    -0.56000
C597        C  0.47273018  0.39735719  0.61810473     0.77800
O598        O  0.52180283  0.27550221  0.61414847    -0.58400
O599        O  0.53155926  0.33835664  0.69790416    -0.56800
O600        O  0.55929332  0.37176698  0.54748691    -0.56800
O601        O  0.50315599  0.40441571  0.64473668    -0.56000
O602        O  0.63890427  0.10834036  0.65188437    -0.57200
C603        C  0.61018579  0.07622938  0.53733248     0.75400
O604        O  0.51152986  0.08080433  0.64777976    -0.58300
C605        C  0.62244384  0.10075616  0.68886784     0.75400
C606        C  0.56262506  0.21067750  0.61045980     0.77800
Cd607      Cd  0.57120381  0.11853131  0.61171081     1.37500
O608        O  0.61031778  0.06007750  0.57506125    -0.57200
O609        O  0.59906076  0.19249374  0.60613553    -0.56000
C610        C  0.49042605  0.07336538  0.61325113     0.77800
O611        O  0.53003607  0.18662432  0.61426565    -0.58400
O612        O  0.59344026  0.11292182  0.53368958    -0.56800
O613        O  0.58139483  0.10022982  0.69062023    -0.56800
O614        O  0.50486951  0.08944470  0.57840042    -0.56000
O615        O  0.91968393  0.07745079  0.98826263    -0.57200
C616        C  0.93048969  0.07596465  0.87365997     0.75400
O617        O  0.95196904  0.97214153  0.90191540    -0.58300
C618        C  0.92767437  0.05659855  0.02252478     0.75400
C619        C  0.80248395  0.00855625  0.93738543     0.77800
Cd620      Cd  0.89879331  0.01790460  0.94121866     1.37500
O621        O  0.93637750  0.08204118  0.91392413    -0.57200
O622        O  0.82131251  0.04382814  0.94233643    -0.56000
C623        C  0.95776646  0.94536972  0.93219386     0.77800
O624        O  0.82749078  0.97672435  0.93400031    -0.58400
O625        O  0.91018217  0.04230573  0.86358606    -0.56800
O626        O  0.91959964  0.01716108  0.02113767    -0.56800
O627        O  0.93420700  0.94994680  0.96562383    -0.56000
O628        O  0.63403912  0.05371598  0.86885057    -0.57200
C629        C  0.62881694  0.05277897  0.00100468     0.75400
O630        O  0.63342107  0.92780993  0.94092400    -0.58300
C631        C  0.65300624  0.03362905  0.83856845     0.75400
C632        C  0.75424057  0.00554059  0.93515127     0.77800
Cd633      Cd  0.65857431  0.00384980  0.92716339     1.37500
O634        O  0.62744046  0.06777715  0.96273879    -0.57200
O635        O  0.73074439  0.03864592  0.93525914    -0.56000
C636        C  0.59493679  0.93549669  0.92797758     0.77800
O637        O  0.73399911  0.97047004  0.93265242    -0.58400
O638        O  0.64515356  0.01597317  0.00538811    -0.56800
O639        O  0.67046362  0.99842521  0.84869059    -0.56800
O640        O  0.58738357  0.97293523  0.91503567    -0.56000
C641        C  0.59317149  0.29276360  0.81354115     0.87100
C642        C  0.63863991  0.29735054  0.79284814    -0.53100
C643        C  0.64849725  0.33727880  0.77946505     0.10000
C644        C  0.61225306  0.36941406  0.78647510     0.21000
C645        C  0.59207537  0.32620470  0.84965735    -0.53800
C646        C  0.60341096  0.36627142  0.83618819     0.10100
C647        C  0.56172280  0.31041624  0.77910386    -0.53400
C648        C  0.57328745  0.34904521  0.76235425     0.10700
H649        H  0.66267214  0.27186866  0.79243533     0.15200
H650        H  0.62035615  0.40202644  0.77518341     0.01000
H651        H  0.58682569  0.31805594  0.88362671     0.15500
H652        H  0.53643007  0.29171053  0.76391029     0.15300
C653        C  0.71768676  0.10161891  0.76827354     0.87100
C654        C  0.69420079  0.10092631  0.72446476    -0.53100
C655        C  0.65040663  0.09502759  0.72776673     0.10000
C656        C  0.63413164  0.08956714  0.77551351     0.21000
C657        C  0.69352768  0.13606602  0.79466253    -0.53800
C658        C  0.64967417  0.13011301  0.79836910     0.10100
C659        C  0.70561073  0.05922028  0.78907542    -0.53400
C660        C  0.66232307  0.05379562  0.79620275     0.10700
H661        H  0.70965586  0.10638445  0.69334113     0.15200
H662        H  0.59872670  0.08349702  0.77823207     0.01000
H663        H  0.70983170  0.16405244  0.80732850     0.15500
H664        H  0.73009026  0.03893927  0.80425080     0.15300
C665        C  0.95754174  0.18026575  0.81483066     0.87100
C666        C  0.91250037  0.17619264  0.79293605    -0.53100
C667        C  0.90139711  0.13605784  0.78154679     0.10000
C668        C  0.93639792  0.10316050  0.79116507     0.21000
C669        C  0.95623783  0.14838186  0.85279054    -0.53800
C670        C  0.94441303  0.10801764  0.84078623     0.10100
C671        C  0.98946778  0.15972403  0.78263682    -0.53400
C672        C  0.97663377  0.12096165  0.76720929     0.10700
H673        H  0.88941094  0.20240442  0.79056953     0.15200
H674        H  0.92743882  0.07036971  0.78122952     0.01000
H675        H  0.96085346  0.15769323  0.88651849     0.15500
H676        H  0.01655319  0.17605793  0.76804306     0.15300
C677        C  0.83137894  0.37282175  0.76732338     0.87100
C678        C  0.85544222  0.37265512  0.72392489    -0.53100
C679        C  0.89932086  0.37771242  0.72790027     0.10000
C680        C  0.91494940  0.38327812  0.77585008     0.21000
C681        C  0.85446869  0.33802769  0.79451702    -0.53800
C682        C  0.89830902  0.34325521  0.79884438     0.10100
C683        C  0.84391734  0.41519828  0.78759010    -0.53400
C684        C  0.88710055  0.41967002  0.79580485     0.10700
H685        H  0.84028534  0.36697339  0.69267261     0.15200
H686        H  0.95051417  0.38838424  0.77903000     0.01000
H687        H  0.83761691  0.31013792  0.80672220     0.15500
H688        H  0.81953378  0.43603401  0.80201820     0.15300
C689        C  0.93308439  0.24356103  0.85748793    -0.20700
C690        C  0.96319204  0.22721275  0.82699031    -0.08700
C691        C  0.98189406  0.25664466  0.79741929     0.30100
C692        C  0.96350015  0.29695587  0.79194269    -0.20700
C693        C  0.92697183  0.30908834  0.81604076    -0.08700
C694        C  0.91439801  0.28379197  0.85154059     0.30100
F695        F  0.88117481  0.29608434  0.87778836    -0.19300
H696        H  0.91847600  0.22276057  0.88145338     0.18500
H697        H  0.97518247  0.31673029  0.76558206     0.18500
F698        F  0.01517811  0.24624988  0.77067359    -0.19200
C699        C  0.79141286  0.11718351  0.73173548    -0.20700
C700        C  0.76641951  0.10890934  0.76934145    -0.08700
C701        C  0.78746015  0.10836014  0.81028735     0.30100
C702        C  0.83171300  0.11582157  0.81336908    -0.20700
C703        C  0.85590201  0.12456827  0.77606393    -0.08700
C704        C  0.83591292  0.12524852  0.73519270     0.30100
F705        F  0.85923996  0.13450052  0.69891199    -0.19300
H706        H  0.77726164  0.11837630  0.69965521     0.18500
H707        H  0.84697664  0.11598135  0.84519968     0.18500
F708        F  0.76494949  0.10136213  0.84766162    -0.19200
C709        C  0.71739556  0.35902473  0.81159891    -0.20700
C710        C  0.69351716  0.35004317  0.77415123    -0.08700
C711        C  0.71337430  0.35049719  0.73328203     0.30100
C712        C  0.75776750  0.35893613  0.73005972    -0.20700
C713        C  0.78262638  0.36655252  0.76789771    -0.08700
C714        C  0.76146494  0.36715723  0.80872217     0.30100
F715        F  0.78376368  0.37449712  0.84619536    -0.19300
H716        H  0.70206176  0.35843869  0.84335818     0.18500
H717        H  0.77197235  0.35843502  0.69801919     0.18500
F718        F  0.69010640  0.34168671  0.69682553    -0.19200
C719        C  0.56635512  0.21730179  0.80053238    -0.20700
C720        C  0.58809860  0.24641031  0.82774314    -0.08700
C721        C  0.61888882  0.22969091  0.85750519     0.30100
C722        C  0.63543878  0.18867483  0.85145559    -0.20700
C723        C  0.62073352  0.16354785  0.81672163    -0.08700
C724        C  0.58302626  0.17643040  0.79434074     0.30100
F725        F  0.56580360  0.15245227  0.76207532    -0.19300
H726        H  0.54005130  0.22689785  0.77934692     0.18500
H727        H  0.66316044  0.17851457  0.87074283     0.18500
F728        F  0.63927980  0.25540830  0.88646278    -0.19200
C729        C  0.25313790  0.88662521  0.75486258    -0.20700
C730        C  0.23087247  0.84932640  0.76645401    -0.08700
C731        C  0.25504392  0.81443561  0.78208110     0.30100
C732        C  0.30045439  0.81551602  0.78210026    -0.20700
C733        C  0.32296484  0.85128297  0.76646741    -0.08700
C734        C  0.29880356  0.88765675  0.75468825     0.30100
F735        F  0.31891870  0.92303161  0.73980212    -0.19300
H736        H  0.23535254  0.91418881  0.74340573     0.18500
H737        H  0.31816954  0.78743146  0.79255202     0.18500
F738        F  0.23478161  0.77876858  0.79631766    -0.19200
C739        C  0.11302937  0.71289005  0.66475179    -0.20700
C740        C  0.08425654  0.69112512  0.69236201    -0.08700
C741        C  0.04973989  0.71495303  0.70971036     0.30100
C742        C  0.05723990  0.75753239  0.71905422    -0.20700
C743        C  0.09711654  0.77568850  0.70658294    -0.08700
C744        C  0.12060166  0.75576596  0.67293101     0.30100
F745        F  0.15441614  0.77546469  0.65303758    -0.19300
H746        H  0.13609546  0.69551498  0.64486229     0.18500
H747        H  0.03381184  0.77464789  0.73863076     0.18500
F748        F  0.01382339  0.69555405  0.72585868    -0.19200
C749        C  0.41800740  0.71090896  0.67076320    -0.20700
C750        C  0.44387897  0.68734219  0.69984750    -0.08700
C751        C  0.48308108  0.70557765  0.71403432     0.30100
C752        C  0.48583317  0.74959716  0.71542706    -0.20700
C753        C  0.45002448  0.77366807  0.70111647    -0.08700
C754        C  0.42153956  0.75492517  0.67083091     0.30100
F755        F  0.39113520  0.77849630  0.64946054    -0.19300
H756        H  0.39098836  0.69640364  0.65379038     0.18500
H757        H  0.51281673  0.76401653  0.73243872     0.18500
F758        F  0.51482614  0.68167764  0.73287389    -0.19200
C759        C  0.28602230  0.65184457  0.76717035    -0.20700
C760        C  0.30880326  0.61423207  0.75723519    -0.08700
C761        C  0.28481435  0.57659210  0.75107462     0.30100
C762        C  0.23907998  0.57793159  0.75001642    -0.20700
C763        C  0.21672110  0.61662263  0.75551164    -0.08700
C764        C  0.24070850  0.65312000  0.76643440     0.30100
F765        F  0.22036049  0.69047354  0.77547198    -0.19300
H766        H  0.30343780  0.68094538  0.77415780     0.18500
H767        H  0.22135042  0.54916276  0.74264671     0.18500
F768        F  0.30518868  0.53906462  0.74351789    -0.19200
loop_ 
_geom_bond_atom_site_label_1 
_geom_bond_atom_site_label_2 
_geom_bond_distance 
_geom_bond_site_symmetry_2 
_ccdc_geom_bond_type 
O1            C4   1.264       .  A
O1           Cd6   2.494       .  S
C2           O11   1.267       .  A
C2            O7   1.268       .  A
C2          C148   1.487       .  S
O3            C9   1.268       .  A
O3           Cd6   2.553       .  S
C4           O12   1.265       .  A
C4          C414   1.477       .  S
C5           O10   1.269       .  A
C5            O8   1.268       .  A
C5           C18   1.497       .  S
Cd6          O13   2.434       .  S
Cd6          O12   2.500       .  S
Cd6          O11   2.422       .  S
Cd6           O7   2.566       .  S
Cd6          O10   2.556       .  S
Cd6           O8   2.532       .  S
C9           O13   1.261       .  A
C9          C252   1.476       .  S
O14          C17   1.268       .  A
O14         Cd19   2.588       .  S
C15          O24   1.265       .  A
C15          O20   1.267       .  A
C15         C440   1.476       .  S
O16          C22   1.262       .  A
O16         Cd19   2.502       .  S
C17          O25   1.265       .  A
C17         C112   1.488       .  S
C18          O23   1.268       .  A
C18          O21   1.266       .  A
Cd19         O26   2.513       .  S
Cd19         O25   2.396       .  S
Cd19         O24   2.478       .  S
Cd19         O20   2.505       .  S
Cd19         O23   2.559       .  S
Cd19         O21   2.531       .  S
C22          O26   1.264       .  A
C22         C174   1.477       .  S
O27          C30   1.264       .  A
O27         Cd32   2.480       .  S
C28          O37   1.264       .  A
C28          O33   1.266       .  A
C28         C146   1.476       .  S
O29          C35   1.263       .  A
O29         Cd32   2.459   1_545  S
C30          O38   1.265       .  A
C30         C388   1.471       .  S
C31          O36   1.267   1_565  A
C31          O34   1.262       .  A
C31          C48   1.460       .  S
Cd32         O39   2.458   1_565  S
Cd32         O38   2.493       .  S
Cd32         O37   2.515       .  S
Cd32         O33   2.396       .  S
Cd32         O36   2.485   1_565  S
Cd32         O34   2.419       .  S
C35          O39   1.263       .  A
C35         C226   1.460       .  S
O40          C43   1.264       .  A
O40         Cd45   2.481       .  S
C41          O50   1.264       .  A
C41          O46   1.265       .  A
C41         C131   1.473       .  S
O42          C48   1.266   1_545  A
O42         Cd45   2.475   1_545  S
C43          O51   1.264       .  A
C43         C464   1.470       .  S
C44          O49   1.263       .  A
C44          O47   1.264       .  A
C44         C200   1.456       .  S
Cd45         O52   2.426       .  S
Cd45         O51   2.484       .  S
Cd45         O50   2.505       .  S
Cd45         O46   2.431       .  S
Cd45         O49   2.455   1_565  S
Cd45         O47   2.427   1_565  S
C48          O52   1.264       .  A
O53          C56   1.264       .  A
O53         Cd58   2.479       .  S
C54          O63   1.265       .  A
C54          O59   1.266       .  A
C54         C107   1.476       .  S
O55          C61   1.267       .  A
O55         Cd58   2.481       .  S
C56          O64   1.266       .  A
C56         C399   1.474   1_554  S
C57          O62   1.266       .  A
C57          O60   1.260       .  A
C57         C213   1.456       .  S
Cd58         O65   2.414       .  S
Cd58         O64   2.506       .  S
Cd58         O63   2.519       .  S
Cd58         O59   2.390       .  S
Cd58         O62   2.497       .  S
Cd58         O60   2.395       .  S
C61          O65   1.262       .  A
C61          C70   1.459       .  S
O66          C69   1.264       .  A
O66         Cd71   2.484       .  S
C67          O76   1.264       .  A
C67          O72   1.264       .  A
C67         C122   1.471       .  S
O68          C74   1.263       .  A
O68         Cd71   2.457       .  S
C69          O77   1.266       .  A
C69         C479   1.475       .  S
C70          O75   1.267       .  A
C70          O73   1.263       .  A
Cd71         O78   2.445       .  S
Cd71         O77   2.508       .  S
Cd71         O76   2.511       .  S
Cd71         O72   2.399       .  S
Cd71         O75   2.477       .  S
Cd71         O73   2.416       .  S
C74          O78   1.264       .  A
C74         C183   1.457       .  S
O79          C82   1.269       .  A
O79         Cd84   2.580       .  S
C80          O89   1.264       .  A
C80          O85   1.267       .  A
C80         C427   1.471       .  S
O81          C87   1.261   1_455  A
O81         Cd84   2.495       .  S
C82          O90   1.264       .  A
C82         C136   1.487       .  S
C83          O88   1.268       .  A
C83          O86   1.266       .  A
C83          C96   1.491       .  S
Cd84         O91   2.519       .  S
Cd84         O90   2.374       .  S
Cd84         O89   2.462       .  S
Cd84         O85   2.496       .  S
Cd84         O88   2.536       .  S
Cd84         O86   2.521       .  S
C87          O91   1.264   1_655  A
C87         C239   1.477       .  S
O92          C95   1.266       .  A
O92         Cd97   2.509       .  S
C93         O102   1.265       .  A
C93          O98   1.268       .  A
C93         C124   1.483       .  S
O94         C100   1.268       .  A
O94         Cd97   2.552   1_655  S
C95         O103   1.265       .  A
C95         C453   1.478       .  S
C96         O101   1.267       .  A
C96          O99   1.267       .  A
Cd97        O104   2.435       .  S
Cd97        O103   2.489       .  S
Cd97        O102   2.423       .  S
Cd97         O98   2.558       .  S
Cd97        O101   2.535       .  S
Cd97         O99   2.524       .  S
C100        O104   1.262   1_655  A
C100        C161   1.476       .  S
C105        C106   1.499       .  S
C105        C111   1.518       .  S
C105        C109   1.547       .  S
C105        C366   1.515       .  S
C106        H113   1.088       .  S
C106        C107   1.362       .  D
C107        C108   1.570       .  S
C108        C112   1.569       .  S
C108        C110   1.543       .  S
C108        H114   1.110       .  S
C109        H115   1.085       .  S
C109        C110   1.367       .  D
C110        C376   1.496       .  S
C111        H116   1.085       .  S
C111        C112   1.358       .  D
C117        C118   1.549       .  S
C117        C123   1.525       .  S
C117        C121   1.504       .  S
C117        C356   1.517       .  S
C118        H125   1.085       .  S
C118        C119   1.367       .  D
C119        C379   1.492       .  S
C119        C120   1.539       .  S
C120        C124   1.561       .  S
C120        C122   1.562       .  S
C120        H126   1.110       .  S
C121        H127   1.088       .  S
C121        C122   1.363       .  D
C123        H128   1.085       .  S
C123        C124   1.360       .  D
C129        C130   1.505       .  S
C129        C135   1.519       .  S
C129        C133   1.550       .  S
C129        C359   1.516       .  S
C130        H137   1.089       .  S
C130        C131   1.362       .  D
C131        C132   1.565       .  S
C132        C136   1.565       .  S
C132        C134   1.538       .  S
C132        H138   1.110       .  S
C133        H139   1.085       .  S
C133        C134   1.367       .  D
C134        C346   1.491       .  S
C135        H140   1.085       .  S
C135        C136   1.360       .  D
C141        C142   1.542       .  S
C141        C147   1.522       .  S
C141        C145   1.501       .  S
C141        C369   1.509       .  S
C142        H149   1.086       .  S
C142        C143   1.365       .  D
C143        C349   1.496       .  S
C143        C144   1.546       .  S
C144        C148   1.569       .  S
C144        C146   1.568       .  S
C144        H150   1.110       .  S
C145        H151   1.088       .  S
C145        C146   1.360       .  D
C147        H152   1.085       .  S
C147        C148   1.360       .  D
O153        C156   1.267       .  A
O153       Cd158   2.491       .  S
C154        O163   1.267       .  A
C154        O159   1.266       .  A
C154        C566   1.476       .  S
O155        C161   1.271       .  A
O155       Cd158   2.553       .  S
C156        O164   1.266       .  A
C156        C300   1.474       .  S
C157        O162   1.270       .  A
C157        O160   1.264       .  A
C157        C170   1.489       .  S
Cd158       O165   2.420       .  S
Cd158       O164   2.443       .  S
Cd158       O163   2.488       .  S
Cd158       O159   2.492       .  S
Cd158       O162   2.560       .  S
Cd158       O160   2.491       .  S
C161        O165   1.261       .  A
O166        C169   1.262       .  A
O166       Cd171   2.441       .  S
C167        O176   1.267       .  A
C167        O172   1.263       .  A
C167        C262   1.489       .  S
O168        C174   1.265       .  A
O168       Cd171   2.493       .  S
C169        O177   1.268       .  A
C169        C592   1.473       .  S
C170        O175   1.266       .  A
C170        O173   1.263       .  A
Cd171       O178   2.496       .  S
Cd171       O177   2.536       .  S
Cd171       O176   2.548       .  S
Cd171       O172   2.458       .  S
Cd171       O175   2.556       .  S
Cd171       O173   2.502       .  S
C174        O178   1.265       .  A
O179        C182   1.263       .  A
O179       Cd184   2.467       .  S
C180        O189   1.265       .  A
C180        O185   1.266       .  A
C180        C295   1.483       .  S
O181        C187   1.263   1_455  A
O181       Cd184   2.497   1_455  S
C182        O190   1.268       .  A
C182        C538   1.474       .  S
C183        O188   1.266       .  A
C183        O186   1.263       .  A
Cd184       O191   2.499       .  S
Cd184       O190   2.510       .  S
Cd184       O189   2.522       .  S
Cd184       O185   2.426       .  S
Cd184       O188   2.458   1_655  S
Cd184       O186   2.437   1_655  S
C187        O191   1.264       .  A
C187        C196   1.474       .  S
O192        C195   1.270       .  A
O192       Cd197   2.525   1_655  S
C193        O202   1.262   1_655  A
C193        O198   1.271       .  A
C193        C288   1.484       .  S
O194        C200   1.264       .  A
O194       Cd197   2.489       .  S
C195        O203   1.264       .  A
C195        C618   1.474       .  S
C196        O201   1.267   1_655  A
C196        O199   1.265       .  A
Cd197       O204   2.433       .  S
Cd197       O203   2.436   1_455  S
Cd197       O202   2.407       .  S
Cd197       O198   2.530   1_455  S
Cd197       O201   2.492       .  S
Cd197       O199   2.478   1_455  S
C200        O204   1.258       .  A
O205        C208   1.268       .  A
O205       Cd210   2.526       .  S
C206        O215   1.265       .  A
C206        O211   1.271       .  A
C206        C264   1.483       .  S
O207        C213   1.266       .  A
O207       Cd210   2.510       .  S
C208        O216   1.263       .  A
C208        C553   1.473       .  S
C209        O214   1.266       .  A
C209        O212   1.266       .  A
C209        C222   1.471       .  S
Cd210       O217   2.392       .  S
Cd210       O216   2.436       .  S
Cd210       O215   2.415       .  S
Cd210       O211   2.514       .  S
Cd210       O214   2.482       .  S
Cd210       O212   2.474       .  S
C213        O217   1.260       .  A
O218        C221   1.265       .  A
O218       Cd223   2.420       .  S
C219        O228   1.267       .  A
C219        O224   1.263       .  A
C219        C629   1.469       .  S
O220        C226   1.265       .  A
O220       Cd223   2.452       .  S
C221        O229   1.264       .  A
C221        C271   1.479       .  S
C222        O227   1.263       .  A
C222        O225   1.263       .  A
Cd223       O230   2.448       .  S
Cd223       O229   2.505       .  S
Cd223       O228   2.486       .  S
Cd223       O224   2.462       .  S
Cd223       O227   2.494       .  S
Cd223       O225   2.487       .  S
C226        O230   1.265       .  A
O231        C234   1.261       .  A
O231       Cd236   2.436       .  S
C232        O241   1.268       .  A
C232        O237   1.264       .  A
C232        C286   1.487       .  S
O233        C239   1.265       .  A
O233       Cd236   2.491   1_565  S
C234        O242   1.267       .  A
C234        C579   1.472       .  S
C235        O240   1.266   1_545  A
C235        O238   1.264       .  A
C235        C248   1.489       .  S
Cd236       O243   2.502   1_545  S
Cd236       O242   2.539       .  S
Cd236       O241   2.525       .  S
Cd236       O237   2.463       .  S
Cd236       O240   2.552   1_545  S
Cd236       O238   2.512       .  S
C239        O243   1.265       .  A
O244        C247   1.268       .  A
O244       Cd249   2.477       .  S
C245        O254   1.265       .  A
C245        O250   1.266       .  A
C245        C603   1.471       .  S
O246        C252   1.270       .  A
O246       Cd249   2.545   1_565  S
C247        O255   1.267   1_545  A
C247        C276   1.473       .  S
C248        O253   1.271   1_545  A
C248        O251   1.264       .  A
Cd249       O256   2.431   1_545  S
Cd249       O255   2.439   1_545  S
Cd249       O254   2.462       .  S
Cd249       O250   2.495       .  S
Cd249       O253   2.546   1_545  S
Cd249       O251   2.488       .  S
C252        O256   1.262       .  A
C257        C258   1.543       .  S
C257        C263   1.534       .  S
C257        C261   1.530       .  S
C257        C336   1.529       .  S
C258        H265   1.088       .  S
C258        C259   1.358       .  D
C259        C326   1.454       .  S
C259        C260   1.518       .  S
C260        C264   1.547       .  S
C260        C262   1.554       .  S
C260        H266   1.111       .  S
C261        H267   1.086       .  S
C261        C262   1.370       .  D
C263        H268   1.082       .  S
C263        C264   1.366       .  D
C269        C270   1.525       .  S
C269        C275   1.524       .  S
C269        C273   1.544       .  S
C269        C316   1.517       .  S
C270        H277   1.081       .  S
C270        C271   1.363       .  D
C271        C272   1.556       .  S
C272        C276   1.551       .  S
C272        C274   1.532       .  S
C272        H278   1.110       .  S
C273        H279   1.087       .  S
C273        C274   1.366       .  D
C274        C339   1.484       .  S
C275        H280   1.088       .  S
C275        C276   1.362       .  D
C281        C282   1.544       .  S
C281        C287   1.531       .  S
C281        C285   1.535       .  S
C281        C306   1.529       .  S
C282        H289   1.088       .  S
C282        C283   1.357       .  D
C283        C319   1.457       .  S
C283        C284   1.518       .  S
C284        C288   1.547       .  S
C284        C286   1.553       .  S
C284        H290   1.111       .  S
C285        H291   1.085       .  S
C285        C286   1.372       .  D
C287        H292   1.081   1_655  S
C287        C288   1.366       .  D
C293        C294   1.524       .  S
C293        C299   1.518       .  S
C293        C297   1.544       .  S
C293        C329   1.511       .  S
C294        H301   1.083       .  S
C294        C295   1.366       .  D
C295        C296   1.561       .  S
C296        C300   1.557       .  S
C296        C298   1.529       .  S
C296        H302   1.111       .  S
C297        H303   1.087       .  S
C297        C298   1.362       .  D
C298        C309   1.477       .  S
C299        H304   1.089       .  S
C299        C300   1.359       .  D
C305        C306   1.413       .  A
C305        C310   1.398       .  A
C305        H312   1.082       .  S
C306        C307   1.422       .  A
C307        C308   1.393       .  A
C307        F314   1.354   1_655  S
C308        C309   1.394       .  A
C308        H313   1.082       .  S
C309        C310   1.402       .  A
C310        F311   1.358       .  S
C315        C316   1.413       .  A
C315        C320   1.396       .  A
C315        H322   1.077       .  S
C316        C317   1.412       .  A
C317        C318   1.385       .  A
C317        F324   1.359       .  S
C318        C319   1.395       .  A
C318        H323   1.083       .  S
C319        C320   1.396       .  A
C320        F321   1.357       .  S
C325        C326   1.393       .  A
C325        C330   1.381       .  A
C325        H332   1.084       .  S
C326        C327   1.398       .  A
C327        C328   1.397       .  A
C327        F334   1.357       .  S
C328        C329   1.411       .  A
C328        H333   1.078       .  S
C329        C330   1.412       .  A
C330        F331   1.359       .  S
C335        C336   1.411       .  A
C335        C340   1.393       .  A
C335        H342   1.078       .  S
C336        C337   1.415       .  A
C337        C338   1.397       .  A
C337        F344   1.357       .  S
C338        C339   1.402       .  A
C338        H343   1.084       .  S
C339        C340   1.403       .  A
C340        F341   1.354       .  S
C345        C346   1.405       .  A
C345        C350   1.406       .  A
C345        H352   1.081       .  S
C346        C347   1.406       .  A
C347        C348   1.396       .  A
C347        F354   1.357       .  S
C348        C349   1.407       .  A
C348        H353   1.083       .  S
C349        C350   1.409       .  A
C350        F351   1.354       .  S
C355        C356   1.406       .  A
C355        C360   1.391       .  A
C355        H362   1.083       .  S
C356        C357   1.406       .  A
C357        C358   1.390       .  A
C357        F364   1.357       .  S
C358        C359   1.406       .  A
C358        H363   1.082       .  S
C359        C360   1.407       .  A
C360        F361   1.358       .  S
C365        C366   1.404       .  A
C365        C370   1.389       .  A
C365        H372   1.083       .  S
C366        C367   1.405       .  A
C367        C368   1.388       .  A
C367        F374   1.358       .  S
C368        C369   1.405       .  A
C368        H373   1.082       .  S
C369        C370   1.409       .  A
C370        F371   1.358       .  S
C375        C376   1.406       .  A
C375        C380   1.395       .  A
C375        H382   1.083       .  S
C376        C377   1.409       .  A
C377        C378   1.407       .  A
C377        F384   1.354       .  S
C378        C379   1.406       .  A
C378        H383   1.082       .  S
C379        C380   1.407       .  A
C380        F381   1.357       .  S
O385        C388   1.265   1_556  A
O385       Cd390   2.481       .  S
C386        O395   1.266       .  A
C386        O391   1.267       .  A
C386        C532   1.482       .  S
O387        C393   1.269       .  A
O387       Cd390   2.555       .  S
C388        O396   1.265       .  A
C389        O394   1.269       .  A
C389        O392   1.267       .  A
C389        C402   1.494       .  S
Cd390       O397   2.429       .  S
Cd390       O396   2.477   1_556  S
Cd390       O395   2.418       .  S
Cd390       O391   2.550       .  S
Cd390       O394   2.549       .  S
Cd390       O392   2.524       .  S
C393        O397   1.261       .  A
C393        C636   1.476       .  S
O398        C401   1.268       .  A
O398       Cd403   2.576       .  S
C399        O408   1.264   1_556  A
C399        O404   1.266       .  A
O400        C406   1.262       .  A
O400       Cd403   2.495       .  S
C401        O409   1.266       .  A
C401        C496   1.485       .  S
C402        O407   1.267       .  A
C402        O405   1.266       .  A
Cd403       O410   2.519       .  S
Cd403       O409   2.396       .  S
Cd403       O408   2.475   1_556  S
Cd403       O404   2.502       .  S
Cd403       O407   2.549       .  S
Cd403       O405   2.531       .  S
C406        O410   1.265       .  A
C406        C558   1.478       .  S
O411        C414   1.264       .  A
O411       Cd416   2.491       .  S
C412        O421   1.264       .  A
C412        O417   1.265       .  A
C412        C530   1.473       .  S
O413        C419   1.262       .  A
O413       Cd416   2.456   1_545  S
C414        O422   1.267       .  A
C415        O420   1.268   1_565  A
C415        O418   1.261       .  A
C415        C432   1.464       .  S
Cd416       O423   2.469   1_565  S
Cd416       O422   2.500       .  S
Cd416       O421   2.517       .  S
Cd416       O417   2.378       .  S
Cd416       O420   2.501   1_565  S
Cd416       O418   2.426       .  S
C419        O423   1.264       .  A
C419        C610   1.462       .  S
O424        C427   1.263       .  A
O424       Cd429   2.480       .  S
C425        O434   1.267       .  A
C425        O430   1.265       .  A
C425        C515   1.476       .  S
O426        C432   1.267   1_545  A
O426       Cd429   2.487   1_545  S
C427        O435   1.264       .  A
C428        O433   1.267       .  A
C428        O431   1.258       .  A
C428        C584   1.456       .  S
Cd429       O436   2.430       .  S
Cd429       O435   2.502       .  S
Cd429       O434   2.538       .  S
Cd429       O430   2.378       .  S
Cd429       O433   2.506   1_565  S
Cd429       O431   2.391   1_565  S
C432        O436   1.264       .  A
O437        C440   1.264       .  A
O437       Cd442   2.495       .  S
C438        O447   1.265       .  A
C438        O443   1.267       .  A
C438        C491   1.478       .  S
O439        C445   1.267       .  A
O439       Cd442   2.482       .  S
C440        O448   1.265       .  A
C441        O446   1.267       .  A
C441        O444   1.258       .  A
C441        C597   1.455       .  S
Cd442       O449   2.422       .  S
Cd442       O448   2.511       .  S
Cd442       O447   2.526       .  S
Cd442       O443   2.381       .  S
Cd442       O446   2.504       .  S
Cd442       O444   2.386       .  S
C445        O449   1.263       .  A
C445        C454   1.461       .  S
O450        C453   1.264       .  A
O450       Cd455   2.489       .  S
C451        O460   1.264       .  A
C451        O456   1.265       .  A
C451        C506   1.472       .  S
O452        C458   1.263       .  A
O452       Cd455   2.459       .  S
C453        O461   1.267       .  A
C454        O459   1.267       .  A
C454        O457   1.263       .  A
Cd455       O462   2.456       .  S
Cd455       O461   2.513       .  S
Cd455       O460   2.510       .  S
Cd455       O456   2.401       .  S
Cd455       O459   2.487       .  S
Cd455       O457   2.423       .  S
C458        O462   1.264       .  A
C458        C567   1.461       .  S
O463        C466   1.269       .  A
O463       Cd468   2.562       .  S
C464        O473   1.264       .  A
C464        O469   1.266   1_554  A
O465        C471   1.262   1_455  A
O465       Cd468   2.479       .  S
C466        O474   1.266       .  A
C466        C520   1.482       .  S
C467        O472   1.267       .  A
C467        O470   1.266       .  A
C467        C480   1.490       .  S
Cd468       O475   2.518   1_455  S
Cd468       O474   2.374       .  S
Cd468       O473   2.470   1_556  S
Cd468       O469   2.484       .  S
Cd468       O472   2.532       .  S
Cd468       O470   2.526       .  S
C471        O475   1.266       .  A
C471        C623   1.476       .  S
O476        C479   1.267   1_556  A
O476       Cd481   2.501       .  S
C477        O486   1.265       .  A
C477        O482   1.268       .  A
C477        C508   1.485       .  S
O478        C484   1.268       .  A
O478       Cd481   2.546   1_655  S
C479        O487   1.265       .  A
C480        O485   1.267       .  A
C480        O483   1.267       .  A
Cd481       O488   2.434       .  S
Cd481       O487   2.472   1_556  S
Cd481       O486   2.413       .  S
Cd481       O482   2.565       .  S
Cd481       O485   2.528       .  S
Cd481       O483   2.525       .  S
C484        O488   1.262   1_655  A
C484        C545   1.475       .  S
C489        C490   1.499       .  S
C489        C495   1.517       .  S
C489        C493   1.547       .  S
C489        C750   1.510       .  S
C490        H497   1.088       .  S
C490        C491   1.361       .  D
C491        C492   1.569       .  S
C492        C496   1.569       .  S
C492        C494   1.544       .  S
C492        H498   1.109       .  S
C493        H499   1.085       .  S
C493        C494   1.368       .  D
C494        C760   1.496       .  S
C495        H500   1.086       .  S
C495        C496   1.357       .  D
C501        C502   1.551       .  S
C501        C507   1.526       .  S
C501        C505   1.504       .  S
C501        C740   1.522       .  S
C502        H509   1.085       .  S
C502        C503   1.365       .  D
C503        C763   1.491       .  S
C503        C504   1.538       .  S
C504        C508   1.561       .  S
C504        C506   1.564       .  S
C504        H510   1.110       .  S
C505        H511   1.088       .  S
C505        C506   1.364       .  D
C507        H512   1.085       .  S
C507        C508   1.359       .  D
C513        C514   1.501       .  S
C513        C519   1.514       .  S
C513        C517   1.548       .  S
C513        C743   1.507       .  S
C514        H521   1.088       .  S
C514        C515   1.359       .  D
C515        C516   1.563       .  S
C516        C520   1.566       .  S
C516        C518   1.540       .  S
C516        H522   1.110       .  S
C517        H523   1.086       .  S
C517        C518   1.370       .  D
C518        C730   1.491       .  S
C519        H524   1.085       .  S
C519        C520   1.359       .  D
C525        C526   1.544       .  S
C525        C531   1.522       .  S
C525        C529   1.498       .  S
C525        C753   1.508       .  S
C526        H533   1.086       .  S
C526        C527   1.364       .  D
C527        C733   1.493       .  S
C527        C528   1.544       .  S
C528        C532   1.567       .  S
C528        C530   1.566       .  S
C528        H534   1.110       .  S
C529        H535   1.088       .  S
C529        C530   1.360       .  D
C531        H536   1.085       .  S
C531        C532   1.361       .  D
O537        C540   1.266       .  A
O537       Cd542   2.484       .  S
C538        O547   1.267       .  A
C538        O543   1.266   1_554  A
O539        C545   1.270       .  A
O539       Cd542   2.547       .  S
C540        O548   1.266       .  A
C540        C684   1.473       .  S
C541        O546   1.270       .  A
C541        O544   1.264       .  A
C541        C554   1.490       .  S
Cd542       O549   2.425       .  S
Cd542       O548   2.441       .  S
Cd542       O547   2.474   1_556  S
Cd542       O543   2.496       .  S
Cd542       O546   2.555       .  S
Cd542       O544   2.499       .  S
C545        O549   1.262       .  A
O550        C553   1.261   1_556  A
O550       Cd555   2.439       .  S
C551        O560   1.269       .  A
C551        O556   1.263       .  A
C551        C646   1.490       .  S
O552        C558   1.264       .  A
O552       Cd555   2.494       .  S
C553        O561   1.268       .  A
C554        O559   1.265       .  A
C554        O557   1.263       .  A
Cd555       O562   2.511       .  S
Cd555       O561   2.537   1_556  S
Cd555       O560   2.552       .  S
Cd555       O556   2.441       .  S
Cd555       O559   2.563       .  S
Cd555       O557   2.515       .  S
C558        O562   1.265       .  A
O563        C566   1.264       .  A
O563       Cd568   2.480       .  S
C564        O573   1.265       .  A
C564        O569   1.265       .  A
C564        C679   1.481       .  S
O565        C571   1.263   1_455  A
O565       Cd568   2.495   1_455  S
C566        O574   1.268       .  A
C567        O572   1.266       .  A
C567        O570   1.264       .  A
Cd568       O575   2.502       .  S
Cd568       O574   2.505       .  S
Cd568       O573   2.526       .  S
Cd568       O569   2.426       .  S
Cd568       O572   2.463   1_655  S
Cd568       O570   2.453   1_655  S
C571        O575   1.263       .  A
C571        C580   1.474       .  S
O576        C579   1.270       .  A
O576       Cd581   2.529       .  S
C577        O586   1.265   1_655  A
C577        O582   1.271       .  A
C577        C672   1.483       .  S
O578        C584   1.268       .  A
O578       Cd581   2.491   1_455  S
C579        O587   1.263       .  A
C580        O585   1.267   1_655  A
C580        O583   1.266       .  A
Cd581       O588   2.385   1_655  S
Cd581       O587   2.422       .  S
Cd581       O586   2.421   1_655  S
Cd581       O582   2.509       .  S
Cd581       O585   2.485   1_655  S
Cd581       O583   2.486       .  S
C584        O588   1.264       .  A
O589        C592   1.270       .  A
O589       Cd594   2.528       .  S
C590        O599   1.265       .  A
C590        O595   1.271       .  A
C590        C648   1.483       .  S
O591        C597   1.267       .  A
O591       Cd594   2.497       .  S
C592        O600   1.263       .  A
C593        O598   1.266       .  A
C593        O596   1.265       .  A
C593        C606   1.470       .  S
Cd594       O601   2.380       .  S
Cd594       O600   2.427       .  S
Cd594       O599   2.412       .  S
Cd594       O595   2.518       .  S
Cd594       O598   2.481       .  S
Cd594       O596   2.478       .  S
C597        O601   1.262       .  A
O602        C605   1.266       .  A
O602       Cd607   2.438       .  S
C603        O612   1.266       .  A
C603        O608   1.264       .  A
O604        C610   1.265       .  A
O604       Cd607   2.453       .  S
C605        O613   1.264       .  A
C605        C655   1.481       .  S
C606        O611   1.263       .  A
C606        O609   1.263       .  A
Cd607       O614   2.461       .  S
Cd607       O613   2.508       .  S
Cd607       O612   2.498       .  S
Cd607       O608   2.466       .  S
Cd607       O611   2.484       .  S
Cd607       O609   2.487       .  S
C610        O614   1.264       .  A
O615        C618   1.262   1_556  A
O615       Cd620   2.453       .  S
C616        O625   1.269       .  A
C616        O621   1.264       .  A
C616        C670   1.489       .  S
O617        C623   1.265       .  A
O617       Cd620   2.488   1_565  S
C618        O626   1.266       .  A
C619        O624   1.264   1_545  A
C619        O622   1.262       .  A
C619        C632   1.488       .  S
Cd620       O627   2.507   1_545  S
Cd620       O626   2.535   1_556  S
Cd620       O625   2.528       .  S
Cd620       O621   2.473       .  S
Cd620       O624   2.560   1_545  S
Cd620       O622   2.515       .  S
C623        O627   1.265       .  A
O628        C631   1.266       .  A
O628       Cd633   2.492       .  S
C629        O638   1.266       .  A
C629        O634   1.266   1_554  A
O630        C636   1.270       .  A
O630       Cd633   2.550   1_565  S
C631        O639   1.266   1_545  A
C631        C660   1.475       .  S
C632        O637   1.270   1_545  A
C632        O635   1.265       .  A
Cd633       O640   2.427   1_545  S
Cd633       O639   2.443   1_545  S
Cd633       O638   2.467   1_556  S
Cd633       O634   2.478       .  S
Cd633       O637   2.547   1_545  S
Cd633       O635   2.490       .  S
C636        O640   1.262       .  A
C641        C642   1.544       .  S
C641        C647   1.534       .  S
C641        C645   1.529       .  S
C641        C720   1.529       .  S
C642        H649   1.088       .  S
C642        C643   1.356       .  D
C643        C710   1.452       .  S
C643        C644   1.517       .  S
C644        C648   1.549       .  S
C644        C646   1.554       .  S
C644        H650   1.111       .  S
C645        H651   1.086       .  S
C645        C646   1.371       .  D
C647        H652   1.083       .  S
C647        C648   1.366       .  D
C653        C654   1.526       .  S
C653        C659   1.524       .  S
C653        C657   1.542       .  S
C653        C700   1.517       .  S
C654        H661   1.081       .  S
C654        C655   1.364       .  D
C655        C656   1.559       .  S
C656        C660   1.552       .  S
C656        C658   1.534       .  S
C656        H662   1.109       .  S
C657        H663   1.087       .  S
C657        C658   1.367       .  D
C658        C723   1.487       .  S
C659        H664   1.088       .  S
C659        C660   1.361       .  D
C665        C666   1.545       .  S
C665        C671   1.535       .  S
C665        C669   1.536       .  S
C665        C690   1.533       .  S
C666        H673   1.088       .  S
C666        C667   1.355       .  D
C667        C703   1.456       .  S
C667        C668   1.518       .  S
C668        C672   1.546       .  S
C668        C670   1.551       .  S
C668        H674   1.111       .  S
C669        H675   1.086       .  S
C669        C670   1.372       .  D
C671        H676   1.078   1_655  S
C671        C672   1.367       .  D
C677        C678   1.525       .  S
C677        C683   1.522       .  S
C677        C681   1.545       .  S
C677        C713   1.513       .  S
C678        H685   1.082       .  S
C678        C679   1.365       .  D
C679        C680   1.558       .  S
C680        C684   1.553       .  S
C680        C682   1.532       .  S
C680        H686   1.110       .  S
C681        H687   1.086       .  S
C681        C682   1.365       .  D
C682        C693   1.483       .  S
C683        H688   1.089       .  S
C683        C684   1.359       .  D
C689        C690   1.413       .  A
C689        C694   1.399       .  A
C689        H696   1.083       .  S
C690        C691   1.419       .  A
C691        C692   1.395       .  A
C691        F698   1.352   1_655  S
C692        C693   1.398       .  A
C692        H697   1.082       .  S
C693        C694   1.404       .  A
C694        F695   1.357       .  S
C699        C700   1.412       .  A
C699        C704   1.397       .  A
C699        H706   1.077       .  S
C700        C701   1.413       .  A
C701        C702   1.385       .  A
C701        F708   1.359       .  S
C702        C703   1.394       .  A
C702        H707   1.084       .  S
C703        C704   1.397       .  A
C704        F705   1.357       .  S
C709        C710   1.393       .  A
C709        C714   1.383       .  A
C709        H716   1.084       .  S
C710        C711   1.396       .  A
C711        C712   1.395       .  A
C711        F718   1.357       .  S
C712        C713   1.411       .  A
C712        H717   1.077       .  S
C713        C714   1.413       .  A
C714        F715   1.359       .  S
C719        C720   1.410       .  A
C719        C724   1.395       .  A
C719        H726   1.079       .  S
C720        C721   1.414       .  A
C721        C722   1.397       .  A
C721        F728   1.357       .  S
C722        C723   1.403       .  A
C722        H727   1.084       .  S
C723        C724   1.405       .  A
C724        F725   1.354       .  S
C729        C730   1.406       .  A
C729        C734   1.405       .  A
C729        H736   1.081       .  S
C730        C731   1.406       .  A
C731        C732   1.397       .  A
C731        F738   1.357       .  S
C732        C733   1.407       .  A
C732        H737   1.083       .  S
C733        C734   1.408       .  A
C734        F735   1.354       .  S
C739        C740   1.405       .  A
C739        C744   1.392       .  A
C739        H746   1.083       .  S
C740        C741   1.403       .  A
C741        C742   1.389       .  A
C741        F748   1.358       .  S
C742        C743   1.408       .  A
C742        H747   1.081       .  S
C743        C744   1.408       .  A
C744        F745   1.358       .  S
C749        C750   1.404       .  A
C749        C754   1.388       .  A
C749        H756   1.083       .  S
C750        C751   1.406       .  A
C751        C752   1.387       .  A
C751        F758   1.358       .  S
C752        C753   1.403       .  A
C752        H757   1.081       .  S
C753        C754   1.408       .  A
C754        F755   1.358       .  S
C759        C760   1.406       .  A
C759        C764   1.394       .  A
C759        H766   1.083       .  S
C760        C761   1.410       .  A
C761        C762   1.407       .  A
C761        F768   1.354       .  S
C762        C763   1.405       .  A
C762        H767   1.082       .  S
C763        C764   1.407       .  A
C764        F765   1.358       .  S
