geometry optimzed in LAMMPS
_audit_creation_date              2020-11-30 
_audit_creation_method            'lammps2cif' 
_symmetry_space_group_name_H-M    'P1' 
_symmetry_Int_Tables_number       1 
_symmetry_cell_setting            triclinic 
loop_ 
_symmetry_equiv_pos_as_xyz 
  x,y,z 
_cell_length_a                    28.24600776 
_cell_length_b                    36.53025761580513 
_cell_length_c                    34.69761514412066 
_cell_angle_alpha                 90.91502519809299 
_cell_angle_beta                  89.4846150332151 
_cell_angle_gamma                 90.30326475607941 
loop_ 
_atom_site_label 
_atom_site_type_symbol 
_atom_site_fract_x 
_atom_site_fract_y 
_atom_site_fract_z 
_atom_site_charge 
C1          C  0.21735783  0.82836824  0.37150373     0.03200
C2          C  0.19812778  0.82021018  0.40803900    -0.12900
C3          C  0.16119502  0.84147021  0.42423345     0.00700
C4          C  0.14358577  0.87092898  0.40306155    -0.11400
C5          C  0.16204719  0.87913430  0.36648594     0.03200
C6          C  0.19920108  0.85799936  0.35116480    -0.10900
H7          H  0.21221627  0.79747643  0.42390146     0.08800
H8          H  0.11382083  0.88652367  0.41421006     0.06400
H9          H  0.21307843  0.86398650  0.32272138     0.06200
C10         C  0.69326772  0.82106829  0.06667526     0.03200
C11         C  0.71437914  0.81219016  0.03075267    -0.12900
C12         C  0.75167479  0.83373358  0.01623887     0.00700
C13         C  0.76598241  0.86506977  0.03692662    -0.11400
C14         C  0.74533433  0.87448922  0.07266514     0.03200
C15         C  0.70888453  0.85226134  0.08736980    -0.10900
H16         H  0.70360608  0.78758856  0.01525162     0.08800
H17         H  0.79400621  0.88201140  0.02511228     0.06400
H18         H  0.69345887  0.85858347  0.11538302     0.06200
O19         O  0.91687027  0.80722337  0.81090238    -0.78400
C20         C  0.02843005  0.74045395  0.75315051     0.82700
O21         O  0.01519525  0.89068037  0.74029954    -0.79500
O22         O  0.01522176  0.79592392  0.63778827    -0.81000
O23         O  0.85580705  0.77096369  0.68812097    -0.80800
O24         O  0.85225653  0.81215704  0.77544716    -0.79400
Zn25       Zn  0.97182333  0.80967969  0.77270174     1.55700
O26         O  0.91994831  0.74427307  0.66237803    -0.80800
Cd27       Cd  0.88021719  0.81526705  0.71995286     1.59700
Cd28       Cd  0.97492523  0.86281726  0.69991135     1.59600
O29         O  0.85400942  0.86266354  0.69600292    -0.80800
O30         O  0.95114143  0.81521703  0.71978974    -1.91300
Cd31       Cd  0.97636628  0.77500635  0.68475131     1.59900
O32         O  0.91924976  0.89562241  0.68541510    -0.80800
O33         O  0.01973990  0.74088445  0.71702382    -0.79400
C34         C  0.02612009  0.88259662  0.77465825     0.83100
C35         C  0.87195547  0.80919496  0.80816428     0.82800
O36         O  0.01107186  0.76426033  0.77646412    -0.78400
C37         C  0.87507471  0.74615832  0.66705195     0.83600
O38         O  0.01229633  0.85271681  0.78967222    -0.78500
C39         C  0.87443392  0.89174974  0.68444028     0.83700
C40         C  0.02650227  0.82866430  0.62878479     0.84000
O41         O  0.01447081  0.85589196  0.65004077    -0.80900
C42         C  0.20509222  0.61647081  0.87362019     0.03200
C43         C  0.22136821  0.58509696  0.85363708    -0.12900
C44         C  0.25651179  0.56277947  0.86909467     0.00700
C45         C  0.27433891  0.57125985  0.90583048    -0.11400
C46         C  0.25873423  0.60243008  0.92642964     0.03200
C47         C  0.22469256  0.62519718  0.90993626    -0.10900
H48         H  0.20616421  0.57744662  0.82611680     0.08800
H49         H  0.30164639  0.55429232  0.91793193     0.06400
H50         H  0.21340673  0.64952893  0.92562082     0.06200
C51         C  0.73751797  0.58801374  0.55155681     0.03200
C52         C  0.72120814  0.58996691  0.51350953    -0.12900
C53         C  0.68524353  0.56624575  0.50040557     0.00700
C54         C  0.66702749  0.53958440  0.52537688    -0.11400
C55         C  0.68401234  0.53656207  0.56311418     0.03200
C56         C  0.71933585  0.56085500  0.57597823    -0.10900
H57         H  0.73414560  0.61154399  0.49503327     0.08800
H58         H  0.63927204  0.52121913  0.51546796     0.06400
H59         H  0.73142983  0.55954812  0.60548381     0.06200
O60         O  0.48046794  0.59863228  0.31407581    -0.78400
C61         C  0.37636417  0.67402259  0.26886833     0.82700
O62         O  0.39442636  0.52444520  0.22805016    -0.79500
O63         O  0.39227394  0.63549168  0.14754703    -0.81000
O64         O  0.55402708  0.65102371  0.20289994    -0.80800
O65         O  0.54946417  0.59718287  0.28262053    -0.79400
Zn66       Zn  0.42871200  0.60128565  0.27489686     1.55700
O67         O  0.49170477  0.67997905  0.17847901    -0.80800
Cd68       Cd  0.52711444  0.60259502  0.22551922     1.59700
Cd69       Cd  0.43293657  0.56017225  0.19466191     1.59600
O70         O  0.55486431  0.55883875  0.19209562    -0.80800
O71         O  0.45564600  0.60401647  0.22344631    -1.91300
Cd72       Cd  0.43308324  0.64935251  0.19649596     1.59900
O73         O  0.48870377  0.53177901  0.17179814    -0.80800
O74         O  0.39156505  0.68117177  0.23495084    -0.79400
C75         C  0.37863874  0.52786398  0.26233547     0.83100
C76         C  0.52548085  0.59624268  0.31401383     0.82800
O77         O  0.38797762  0.64490264  0.28603848    -0.78400
C78         C  0.53621117  0.67746886  0.18425952     0.83600
O79         O  0.38786613  0.55625620  0.28272739    -0.78500
C80         C  0.53365592  0.53368929  0.17275916     0.83700
C81         C  0.37880725  0.60436068  0.13408588     0.84000
O82         O  0.39093788  0.57459473  0.14970738    -0.80900
C83         C  0.19557204  0.32431471  0.39250988     0.03200
C84         C  0.21258025  0.32026336  0.43030025    -0.12900
C85         C  0.24069103  0.34757886  0.44762459     0.00700
C86         C  0.25325395  0.37856460  0.42655627    -0.11400
C87         C  0.23795505  0.38279960  0.38868288     0.03200
C88         C  0.20882988  0.35583128  0.37187507    -0.10900
H89         H  0.20387579  0.29602732  0.44649581     0.08800
H90         H  0.27656832  0.39898995  0.43929426     0.06400
H91         H  0.19580155  0.36006593  0.34305768     0.06200
C92         C  0.75257242  0.34080032  0.05123240     0.03200
C93         C  0.73698752  0.37232507  0.07128087    -0.12900
C94         C  0.70163994  0.39443094  0.05585425     0.00700
C95         C  0.68353131  0.38561082  0.01928933    -0.11400
C96         C  0.69936747  0.35465910  0.99859367     0.03200
C97         C  0.73397339  0.33227870  0.01468494    -0.10900
H98         H  0.74984306  0.37808408  0.10009749     0.08800
H99         H  0.65612634  0.40249904  0.00718060     0.06400
H100        H  0.74515643  0.30762030  0.99946730     0.06200
O101        O  0.39893145  0.26496065  0.78984319    -0.78400
C102        C  0.53225775  0.32156640  0.81705866     0.82700
O103        O  0.38825285  0.38904368  0.74189747    -0.79500
O104        O  0.54977618  0.37038301  0.69921430    -0.81000
O105        O  0.50170479  0.24328161  0.67973374    -0.80800
O106        O  0.40230601  0.23537558  0.73326930    -0.79400
Zn107      Zn  0.43407365  0.31272940  0.78111826     1.55700
O108        O  0.56129204  0.27823293  0.70108153    -0.80800
Cd109      Cd  0.44164358  0.27035451  0.69916967     1.59700
Cd110      Cd  0.42906083  0.35866094  0.70347650     1.59600
O111        O  0.40045908  0.28174327  0.65193574    -0.80800
O112        O  0.45866921  0.31601032  0.72876755    -1.91300
Cd113      Cd  0.52948505  0.32283980  0.72860222     1.59900
O114        O  0.38748337  0.34166463  0.65786930    -0.80800
O115        O  0.55433236  0.32543340  0.78508111    -0.79400
C116        C  0.37692217  0.38373869  0.77700360     0.83100
C117        C  0.38874729  0.23743035  0.76836779     0.82800
O118        O  0.48772590  0.31592906  0.81829253    -0.78400
C119        C  0.54587376  0.24980893  0.68320420     0.83600
O120        O  0.39083796  0.35541559  0.79462377    -0.78500
C121        C  0.38118317  0.31103569  0.64047199     0.83700
C122        C  0.52548865  0.39467747  0.68224837     0.84000
O123        O  0.48038436  0.39323734  0.68175138    -0.80900
C124        C  0.22584535  0.09696031  0.88484813     0.03200
C125        C  0.20924034  0.10207632  0.92301914    -0.12900
C126        C  0.17370047  0.07933163  0.93806933     0.00700
C127        C  0.15291314  0.05247998  0.91437879    -0.11400
C128        C  0.16825772  0.04706409  0.87623239     0.03200
C129        C  0.20544335  0.06882952  0.86199768    -0.10900
H130        H  0.22366072  0.12366631  0.94120351     0.08800
H131        H  0.12385393  0.03626221  0.92566046     0.06400
H132        H  0.21873136  0.06339797  0.83314558     0.06200
C133        C  0.70366297  0.10532845  0.56573430     0.03200
C134        C  0.72023369  0.11368644  0.52852507    -0.12900
C135        C  0.75943111  0.09511479  0.51286338     0.00700
C136        C  0.78044314  0.06718320  0.53382069    -0.11400
C137        C  0.76436436  0.05856848  0.57091228     0.03200
C138        C  0.72569942  0.07769612  0.58674357    -0.10900
H139        H  0.70471814  0.13608716  0.51298482     0.08800
H140        H  0.81054960  0.05275722  0.52145543     0.06400
H141        H  0.71393931  0.07219500  0.61591364     0.06200
O142        O  0.01427478  0.16409438  0.28689517    -0.78400
C143        C  0.87054095  0.11850017  0.30364539     0.82700
O144        O  0.02542310  0.04418072  0.23694556    -0.79500
O145        O  0.86705934  0.06223518  0.18852580    -0.81000
O146        O  0.92280320  0.19095561  0.17339249    -0.80800
O147        O  0.01969771  0.19396663  0.23165907    -0.79400
Zn148      Zn  0.97358285  0.11978159  0.27530573     1.55700
O149        O  0.86032733  0.15414184  0.18183525    -0.80800
Cd150      Cd  0.97883473  0.16189426  0.19518684     1.59700
Cd151      Cd  0.98765983  0.07365426  0.19732669     1.59600
O152        O  0.02190146  0.14905487  0.14863467    -0.80800
O153        O  0.95596926  0.11683966  0.22155675    -1.91300
Cd154      Cd  0.88523180  0.11187399  0.21585896     1.59900
O155        O  0.03201421  0.08887916  0.15269371    -0.80800
O156        O  0.85243968  0.11448530  0.27020113    -0.79400
C157        C  0.03022628  0.04872608  0.27317820     0.83100
C158        C  0.03053577  0.19039035  0.26696855     0.82800
O159        O  0.91514394  0.12138608  0.30814638    -0.78400
C160        C  0.87918348  0.18320349  0.16835617     0.83600
O161        O  0.01163158  0.07589584  0.29098662    -0.78500
C162        C  0.04025953  0.11928690  0.13633852     0.83700
C163        C  0.89277852  0.03711329  0.17333325     0.84000
O164        O  0.93782019  0.03868285  0.17441338    -0.80900
C165        C  0.78298575  0.10708039  0.47700680    -0.05100
C166        C  0.83109616  0.11679696  0.47838909    -0.05100
C167        C  0.85650473  0.12354845  0.44470419    -0.23200
C168        C  0.83434751  0.12028311  0.40890375     0.19000
C169        C  0.78552270  0.11178151  0.40700916     0.16200
C170        C  0.75979206  0.10564726  0.44131748    -0.18300
C171        C  0.76404143  0.10814565  0.37077290    -0.20100
C172        C  0.79111738  0.11143421  0.33688004    -0.12700
C173        C  0.84001791  0.11869815  0.33870427     0.04000
C174        C  0.86092830  0.12402550  0.37499687    -0.24800
H175        H  0.84935923  0.11820550  0.50571357     0.09100
H176        H  0.89386233  0.13016929  0.44659741     0.12700
H177        H  0.72271495  0.09795087  0.44018979     0.12600
H178        H  0.72665581  0.10175225  0.36864250     0.12400
H179        H  0.77403284  0.10734809  0.30932043     0.12900
H180        H  0.89849540  0.12987362  0.37706127     0.14900
C181        C  0.07065804  0.11973339  0.10137026    -0.05100
C182        C  0.07614902  0.15185679  0.07987282    -0.05100
C183        C  0.10073441  0.15120650  0.04469581    -0.23200
C184        C  0.12000262  0.11838133  0.03031233     0.19000
C185        C  0.11613676  0.08630820  0.05246378     0.16200
C186        C  0.09198847  0.08728284  0.08787093    -0.18300
C187        C  0.13477514  0.05332060  0.03815785    -0.20100
C188        C  0.15501536  0.05164006  0.00142618    -0.12700
C189        C  0.15759531  0.08297475  0.97857278     0.04000
C190        C  0.14131319  0.11662102  0.99356737    -0.24800
H191        H  0.06028505  0.17730968  0.08968060     0.09100
H192        H  0.10346308  0.17610628  0.02824239     0.12700
H193        H  0.08835627  0.06234790  0.10419795     0.12600
H194        H  0.13233182  0.02855325  0.05485692     0.12400
H195        H  0.16783348  0.02557724  0.99039232     0.12900
H196        H  0.14300343  0.14082680  0.97591303     0.14900
C197        C  0.58033790  0.22372128  0.66593607    -0.05100
C198        C  0.62760070  0.22398895  0.67825756    -0.05100
C199        C  0.66057727  0.19986112  0.66192139    -0.23200
C200        C  0.64711104  0.17538946  0.63246374     0.19000
C201        C  0.59976506  0.17489528  0.61957742     0.16200
C202        C  0.56652287  0.19873395  0.63673857    -0.18300
C203        C  0.58677309  0.15101148  0.58928997    -0.20100
C204        C  0.62058551  0.12825562  0.57163153    -0.12700
C205        C  0.66744681  0.12851146  0.58459417     0.04000
C206        C  0.68045387  0.15184715  0.61524146    -0.24800
H207        H  0.63910468  0.24279652  0.70077885     0.09100
H208        H  0.69674520  0.20063378  0.67203442     0.12700
H209        H  0.53027277  0.19841084  0.62676477     0.12600
H210        H  0.55071434  0.15031428  0.57893643     0.12400
H211        H  0.61022471  0.11035540  0.54794849     0.12900
H212        H  0.71682957  0.15222918  0.62496959     0.14900
C213        C  0.26316735  0.12155717  0.86846422    -0.05100
C214        C  0.29814101  0.13762383  0.89213561    -0.05100
C215        C  0.33062312  0.16289999  0.87726432    -0.23200
C216        C  0.32951861  0.17212238  0.83822498     0.19000
C217        C  0.29635820  0.15470200  0.81372591     0.16200
C218        C  0.26317150  0.13009354  0.82900043    -0.18300
C219        C  0.29617046  0.16277968  0.77439143    -0.20100
C220        C  0.32755063  0.18874389  0.75961646    -0.12700
C221        C  0.35902814  0.20765622  0.78401009     0.04000
C222        C  0.36030362  0.19888690  0.82332157    -0.24800
H223        H  0.30039601  0.13088677  0.92230924     0.09100
H224        H  0.35638006  0.17543371  0.89638594     0.12700
H225        H  0.23636911  0.11867006  0.81013571     0.12600
H226        H  0.27130030  0.14937624  0.75511881     0.12400
H227        H  0.32602259  0.19501523  0.72925115     0.12900
H228        H  0.38496994  0.21300684  0.84224024     0.14900
C229        C  0.55799988  0.32455824  0.85406620    -0.05100
C230        C  0.53209269  0.32658962  0.88887185    -0.05100
C231        C  0.55495925  0.33160181  0.92397577    -0.23200
C232        C  0.60431471  0.33447658  0.92514721     0.19000
C233        C  0.63115793  0.33127214  0.89067386     0.16200
C234        C  0.60780956  0.32647389  0.85523575    -0.18300
C235        C  0.68077854  0.33354373  0.89234303    -0.20100
C236        C  0.70332701  0.33994279  0.92766648    -0.12700
C237        C  0.67655954  0.34457241  0.96166682     0.04000
C238        C  0.62710591  0.34122440  0.96025096    -0.24800
H239        H  0.49378620  0.32509138  0.88901501     0.09100
H240        H  0.53393775  0.33374594  0.95018505     0.12700
H241        H  0.62828123  0.32464320  0.82871554     0.12600
H242        H  0.70205031  0.33092079  0.86632179     0.12400
H243        H  0.74154081  0.34241276  0.92831416     0.12900
H244        H  0.60636986  0.34433726  0.98654948     0.14900
C245        C  0.85013371  0.20827653  0.14521698    -0.05100
C246        C  0.80695424  0.19628685  0.12945506    -0.05100
C247        C  0.78050638  0.21928504  0.10618303    -0.23200
C248        C  0.79640970  0.25491367  0.09866669     0.19000
C249        C  0.83957968  0.26740874  0.11457279     0.16200
C250        C  0.86634037  0.24393818  0.13738450    -0.18300
C251        C  0.85489409  0.30338070  0.10788966    -0.20100
C252        C  0.82708427  0.32704160  0.08647532    -0.12700
C253        C  0.78414082  0.31487343  0.07064929     0.04000
C254        C  0.76932945  0.27855252  0.07630574    -0.24800
H255        H  0.79389178  0.16886219  0.13465751     0.09100
H256        H  0.74745573  0.20928579  0.09428888     0.12700
H257        H  0.89952248  0.25360292  0.14936574     0.12600
H258        H  0.88784439  0.31344104  0.11990348     0.12400
H259        H  0.83883534  0.35501734  0.08250930     0.12900
H260        H  0.73578420  0.26924761  0.06466245     0.14900
C261        C  0.25820384  0.34404224  0.48746995    -0.05100
C262        C  0.25694672  0.37449879  0.51271690    -0.05100
C263        C  0.27835966  0.37320391  0.54867121    -0.23200
C264        C  0.30161985  0.34144745  0.55997509     0.19000
C265        C  0.30146769  0.31008034  0.53556662     0.16200
C266        C  0.27938773  0.31146789  0.49951177    -0.18300
C267        C  0.32490828  0.27838987  0.54710013    -0.20100
C268        C  0.34974514  0.27826553  0.58179082    -0.12700
C269        C  0.35150266  0.30982613  0.60553329     0.04000
C270        C  0.32633562  0.34104928  0.59474409    -0.24800
H271        H  0.24012613  0.39966400  0.50422916     0.09100
H272        H  0.27780642  0.39736945  0.56719563     0.19100
H273        H  0.28074483  0.28791470  0.48013087     0.12600
H274        H  0.32500143  0.25401666  0.52888259     0.12400
H275        H  0.36860682  0.25375377  0.58950880     0.12900
H276        H  0.32695694  0.36548041  0.61289640     0.14900
C277        C  0.06413938  0.21664405  0.28482726    -0.05100
C278        C  0.09602970  0.23629242  0.26158850    -0.05100
C279        C  0.12939757  0.25993876  0.27814225    -0.23200
C280        C  0.13083745  0.26497195  0.31824038     0.19000
C281        C  0.09867942  0.24563593  0.34188803     0.16200
C282        C  0.06597395  0.22120866  0.32510923    -0.18300
C283        C  0.09933861  0.25145643  0.38187056    -0.20100
C284        C  0.13080643  0.27680484  0.39820576    -0.12700
C285        C  0.16323145  0.29624990  0.37504580     0.04000
C286        C  0.16342292  0.28948122  0.33494998    -0.24800
H287        H  0.09573411  0.23289188  0.23052133     0.09100
H288        H  0.15376031  0.27455094  0.25955283     0.12700
H289        H  0.04154673  0.20620126  0.34331949     0.12600
H290        H  0.07475864  0.23704539  0.40045256     0.12400
H291        H  0.12874666  0.28173209  0.42900310     0.12900
H292        H  0.18868539  0.30336403  0.31654834     0.14900
C293        C  0.34971767  0.49794840  0.27894704    -0.05100
C294        C  0.34811393  0.46332681  0.26063593    -0.05100
C295        C  0.32312615  0.43436832  0.27722004    -0.23200
C296        C  0.29914320  0.43948944  0.31240214     0.19000
C297        C  0.29941221  0.47443561  0.33055379     0.16200
C298        C  0.32460532  0.50339860  0.31373008    -0.18300
C299        C  0.27559834  0.47957108  0.36581314    -0.20100
C300        C  0.25363229  0.45000185  0.38380313    -0.12700
C301        C  0.25466035  0.41487295  0.36670357     0.04000
C302        C  0.27635096  0.40999060  0.33041141    -0.24800
H303        H  0.36708611  0.45835349  0.23381651     0.09100
H304        H  0.32329138  0.40780431  0.26287222     0.12700
H305        H  0.32523991  0.52999389  0.32803982     0.12600
H306        H  0.27512730  0.50620180  0.38001315     0.12400
H307        H  0.23676950  0.45433936  0.41165541     0.12900
H308        H  0.27766810  0.38289627  0.31723353     0.14900
C309        C  0.56044356  0.50555810  0.15020120    -0.05100
C310        C  0.53473941  0.47842071  0.12988893    -0.05100
C311        C  0.55764841  0.45189582  0.10761523    -0.23200
C312        C  0.60695885  0.45160978  0.10504371     0.19000
C313        C  0.63382936  0.47821261  0.12542646     0.16200
C314        C  0.61035408  0.50523008  0.14794328    -0.18300
C315        C  0.68351304  0.47703847  0.12280137    -0.20100
C316        C  0.70598957  0.44985632  0.10025980    -0.12700
C317        C  0.67910848  0.42377402  0.07960733     0.04000
C318        C  0.62960470  0.42487606  0.08237367    -0.24800
H319        H  0.49642962  0.47762629  0.13094550     0.09100
H320        H  0.53663406  0.43156760  0.09227407     0.12700
H321        H  0.63073182  0.52583252  0.16344323     0.12600
H322        H  0.70493854  0.49703080  0.13821113     0.12400
H323        H  0.74428229  0.44938979  0.09861552     0.12900
H324        H  0.60856428  0.40438001  0.06725605     0.14900
C325        C  0.66259727  0.50945206  0.58961290    -0.05100
C326        C  0.69097236  0.48492753  0.60983524    -0.05100
C327        C  0.67022824  0.45806219  0.63308057    -0.23200
C328        C  0.62074169  0.45557503  0.63683713     0.19000
C329        C  0.59218356  0.48108440  0.61764547     0.16200
C330        C  0.61320281  0.50764546  0.59413500    -0.18300
C331        C  0.54291998  0.47928121  0.62168647    -0.20100
C332        C  0.52184776  0.45176098  0.64344646    -0.12700
C333        C  0.54945509  0.42524557  0.66171688     0.04000
C334        C  0.59921551  0.42775814  0.65878701    -0.24800
H335        H  0.72915108  0.48597460  0.60681698     0.09100
H336        H  0.69284143  0.43896830  0.64770504     0.12700
H337        H  0.59112422  0.52687992  0.57911550     0.12600
H338        H  0.52054810  0.49884169  0.60747636     0.12400
H339        H  0.48357315  0.45093968  0.64534022     0.12900
H340        H  0.62108662  0.40776781  0.67284974     0.14900
C341        C  0.66348949  0.57143432  0.46207627    -0.05100
C342        C  0.69154633  0.57557660  0.42875016    -0.05100
C343        C  0.67047860  0.58108902  0.39287915    -0.23200
C344        C  0.62099726  0.58310887  0.38984552     0.19000
C345        C  0.59269290  0.57929112  0.42337035     0.16200
C346        C  0.61401041  0.57325160  0.45903942    -0.18300
C347        C  0.54342862  0.58179480  0.42082345    -0.20100
C348        C  0.52215716  0.58782543  0.38540017    -0.12700
C349        C  0.54957075  0.59132508  0.35153724     0.04000
C350        C  0.59926196  0.58896137  0.35405053    -0.24800
H351        H  0.72976132  0.57424034  0.43046299     0.09100
H352        H  0.69287189  0.58396854  0.36758098     0.12700
H353        H  0.59209026  0.57070184  0.48469065     0.12600
H354        H  0.52124740  0.57904089  0.44627585     0.12400
H355        H  0.48391033  0.58940050  0.38457279     0.12900
H356        H  0.62094338  0.59158440  0.32830216     0.14900
C357        C  0.27580163  0.53152034  0.84604367    -0.05100
C358        C  0.28722263  0.53609624  0.80687664    -0.05100
C359        C  0.30717555  0.50751538  0.78512949    -0.23200
C360        C  0.31612054  0.47372215  0.80211253     0.19000
C361        C  0.30398478  0.46849471  0.84125877     0.16200
C362        C  0.28396324  0.49741823  0.86300135    -0.18300
C363        C  0.31291575  0.43463024  0.85813968    -0.20100
C364        C  0.33517581  0.40666818  0.83687401    -0.12700
C365        C  0.34875561  0.41191907  0.79822972     0.04000
C366        C  0.33810021  0.44542207  0.78083804    -0.24800
H367        H  0.28171487  0.56218279  0.79324774     0.09100
H368        H  0.31627837  0.51204061  0.75517175     0.12700
H369        H  0.27485595  0.49346471  0.89306969     0.12600
H370        H  0.30358970  0.43001371  0.88803363     0.12400
H371        H  0.34269025  0.38116033  0.85101223     0.12900
H372        H  0.34823270  0.44998196  0.75108503     0.14900
C373        C  0.34895345  0.60144592  0.09905694    -0.05100
C374        C  0.32534010  0.56817928  0.09101143    -0.05100
C375        C  0.30124282  0.56264382  0.05652595    -0.23200
C376        C  0.30025289  0.59021112  0.02905937     0.19000
C377        C  0.32209431  0.62438881  0.03711096     0.16200
C378        C  0.34618464  0.62993396  0.07224890    -0.18300
C379        C  0.32046245  0.65193610  0.00934815    -0.20100
C380        C  0.29858918  0.64526279  0.97374428    -0.12700
C381        C  0.27838433  0.61087415  0.96516479     0.04000
C382        C  0.27874153  0.58367970  0.99327904    -0.24800
H383        H  0.32623215  0.54588442  0.11120711     0.09100
H384        H  0.28428679  0.53643938  0.05098243     0.12700
H385        H  0.36415302  0.65569350  0.07799770     0.12600
H386        H  0.33679297  0.67836597  0.01488192     0.12400
H387        H  0.29872578  0.66659197  0.95241144     0.12900
H388        H  0.26276610  0.55722197  0.98701360     0.14900
C389        C  0.76927308  0.61684851  0.56728669    -0.05100
C390        C  0.81304464  0.62479960  0.54972894    -0.05100
C391        C  0.84288306  0.65183141  0.56549371    -0.23200
C392        C  0.82890854  0.67173969  0.59864312     0.19000
C393        C  0.78408813  0.66466656  0.61548879     0.16200
C394        C  0.75489296  0.63713607  0.59996902    -0.18300
C395        C  0.76911633  0.68511761  0.64775237    -0.20100
C396        C  0.79858847  0.71190814  0.66379573    -0.12700
C397        C  0.84393745  0.71850880  0.64829448     0.04000
C398        C  0.85885164  0.69842132  0.61540200    -0.24800
H399        H  0.82443580  0.60963158  0.52424729     0.09100
H400        H  0.87685103  0.65707379  0.55187717     0.12700
H401        H  0.72066520  0.63162513  0.61310130     0.12600
H402        H  0.73469467  0.68023481  0.66076212     0.12400
H403        H  0.78616187  0.72699055  0.68901301     0.12900
H404        H  0.89345683  0.70362858  0.60284712     0.14900
C405        C  0.16749774  0.63970032  0.85655924    -0.05100
C406        C  0.13342227  0.65697316  0.88034267    -0.05100
C407        C  0.09838634  0.67893096  0.86461017    -0.23200
C408        C  0.09629194  0.68383566  0.82468100     0.19000
C409        C  0.12933750  0.66593793  0.80025431     0.16200
C410        C  0.16491987  0.64433550  0.81630317    -0.18300
C411        C  0.12662775  0.67041303  0.76021211    -0.20100
C412        C  0.09248974  0.69341983  0.74463731    -0.12700
C413        C  0.06073609  0.71259341  0.76884875     0.04000
C414        C  0.06230918  0.70697788  0.80888702    -0.24800
H415        H  0.13346246  0.65328685  0.91122980     0.09100
H416        H  0.07297744  0.69217378  0.88372992     0.12700
H417        H  0.19109407  0.63179201  0.79737787     0.12600
H418        H  0.15143887  0.65663809  0.74098832     0.12400
H419        H  0.09204020  0.69719220  0.71374806     0.12900
H420        H  0.03770453  0.72123776  0.82792483     0.14900
C421        C  0.84597663  0.92169979  0.66838232    -0.05100
C422        C  0.79620612  0.92102279  0.67002479    -0.05100
C423        C  0.76988201  0.94861242  0.65278759    -0.23200
C424        C  0.79291052  0.97711490  0.63333668     0.19000
C425        C  0.84293917  0.97818349  0.63212108     0.16200
C426        C  0.86897221  0.95078991  0.64980821    -0.18300
C427        C  0.86634518  0.00624728  0.61255151    -0.20100
C428        C  0.84050023  0.03263878  0.59349643    -0.12700
C429        C  0.79073949  0.03156353  0.59365046     0.04000
C430        C  0.76700907  0.00407606  0.61431448    -0.24800
H431        H  0.77761158  0.89899686  0.68431005     0.09100
H432        H  0.73157056  0.94732839  0.65412585     0.12700
H433        H  0.90731517  0.95171749  0.64817097     0.12600
H434        H  0.90468187  0.00752215  0.61153600     0.12400
H435        H  0.85952238  0.05396220  0.57840313     0.12900
H436        H  0.72864616  0.00299335  0.61446669     0.14900
C437        C  0.14462298  0.01912361  0.85128029    -0.05100
C438        C  0.13484221  0.02654898  0.81251220    -0.05100
C439        C  0.11065002  0.00099766  0.78951091    -0.23200
C440        C  0.09558223  0.96758873  0.80489097     0.19000
C441        C  0.10548470  0.95972727  0.84371819     0.16200
C442        C  0.13007369  0.98537405  0.86653487    -0.18300
C443        C  0.09029268  0.92644436  0.85921944    -0.20100
C444        C  0.06511734  0.90125153  0.83658321    -0.12700
C445        C  0.05465853  0.90880536  0.79796513     0.04000
C446        C  0.07036903  0.94208617  0.78224679    -0.24800
H447        H  0.14498200  0.05250661  0.80016821     0.09100
H448        H  0.10324284  0.00755596  0.75982883     0.12700
H449        H  0.13793319  0.97899757  0.89619348     0.12600
H450        H  0.09754407  0.92000562  0.88896150     0.12400
H451        H  0.05342807  0.87594202  0.84951792     0.12900
H452        H  0.06257678  0.94837742  0.75255185     0.14900
C453        C  0.76435171  0.90626704  0.09517137    -0.05100
C454        C  0.73432217  0.93057783  0.11544274    -0.05100
C455        C  0.75299295  0.96117045  0.13515092    -0.23200
C456        C  0.80201958  0.96795463  0.13492083     0.19000
C457        C  0.83228322  0.94328803  0.11502862     0.16200
C458        C  0.81342614  0.91270593  0.09570908    -0.18300
C459        C  0.88112914  0.94955180  0.11448917    -0.20100
C460        C  0.90012669  0.98001111  0.13344450    -0.12700
C461        C  0.87080134  0.00503218  0.15347628     0.04000
C462        C  0.82146223  0.99882315  0.15406656    -0.24800
H463        H  0.69635399  0.92633829  0.11540120     0.09100
H464        H  0.72909202  0.97965783  0.15025445     0.12700
H465        H  0.83720247  0.89374561  0.08110009     0.12600
H466        H  0.90474408  0.93090681  0.09927057     0.12400
H467        H  0.93813148  0.98396088  0.13222216     0.12900
H468        H  0.79836879  0.01778673  0.16937797     0.14900
C469        C  0.84205354  0.80915510  0.84378572    -0.05100
C470        C  0.79237901  0.81102077  0.84143042    -0.05100
C471        C  0.76422820  0.81364343  0.87479291    -0.23200
C472        C  0.78510663  0.81473349  0.91131162     0.19000
C473        C  0.83492258  0.81213061  0.91410746     0.16200
C474        C  0.86294747  0.80910137  0.88048692    -0.18300
C475        C  0.85606759  0.81373996  0.95047317    -0.20100
C476        C  0.82840839  0.81931838  0.98358082    -0.12700
C477        C  0.77899969  0.82290679  0.98116492     0.04000
C478        C  0.75730171  0.81965390  0.94496239    -0.24800
H479        H  0.77516749  0.81105213  0.81367314     0.09100
H480        H  0.72616040  0.81558989  0.87197098     0.12700
H481        H  0.90112758  0.80776022  0.88295154     0.12600
H482        H  0.89413958  0.81170586  0.95324361     0.12400
H483        H  0.84574160  0.82166301  0.01124952     0.12900
H484        H  0.71926604  0.82272979  0.94287225     0.14900
C485        C  0.65758120  0.79630595  0.08418813    -0.05100
C486        C  0.61533095  0.78772448  0.06497659    -0.05100
C487        C  0.58185232  0.76420383  0.08164457    -0.23200
C488        C  0.59065424  0.74816070  0.11739482     0.19000
C489        C  0.63339951  0.75636779  0.13667768     0.16200
C490        C  0.66616372  0.78079937  0.12026487    -0.18300
C491        C  0.64313697  0.73941243  0.17167957    -0.20100
C492        C  0.61131377  0.71401321  0.18712260    -0.12700
C493        C  0.56855507  0.70572985  0.16843394     0.04000
C494        C  0.55807922  0.72340867  0.13376488    -0.24800
H495        H  0.60812372  0.79950608  0.03720005     0.09100
H496        H  0.54941672  0.75814757  0.06632720     0.12700
H497        H  0.69896768  0.78706244  0.13502594     0.12600
H498        H  0.67578540  0.74529097  0.18677613     0.12400
H499        H  0.62010997  0.70083441  0.21385305     0.12900
H500        H  0.52546252  0.71689824  0.11886122     0.14900
C501        C  0.14027374  0.90818116  0.34318810    -0.05100
C502        C  0.12846680  0.90105489  0.30450877    -0.05100
C503        C  0.10561563  0.92746236  0.28285858    -0.23200
C504        C  0.09421294  0.96154250  0.29947245     0.19000
C505        C  0.10658477  0.96925345  0.33816713     0.16200
C506        C  0.12953200  0.94254148  0.35977114    -0.18300
C507        C  0.09510640  0.00333901  0.35474526    -0.20100
C508        C  0.07068466  0.02924784  0.33349396    -0.12700
C509        C  0.05759443  0.02169189  0.29514951     0.04000
C510        C  0.07003537  0.98780752  0.27820546    -0.24800
H511        H  0.13588727  0.87462955  0.29127631     0.09100
H512        H  0.09632147  0.92104619  0.25326758     0.12700
H513        H  0.13882122  0.94835186  0.38950948     0.12600
H514        H  0.10450531  0.00980581  0.38430088     0.12400
H515        H  0.06188273  0.05520962  0.34717550     0.12900
H516        H  0.06013688  0.98154440  0.24869899     0.14900
C517        C  0.13943339  0.83242501  0.46239384    -0.05100
C518        C  0.13152993  0.79582098  0.47296296    -0.05100
C519        C  0.10867440  0.78749746  0.50781454    -0.23200
C520        C  0.09311489  0.81557172  0.53288689     0.19000
C521        C  0.10139712  0.85240117  0.52276706     0.16200
C522        C  0.12455900  0.86053934  0.48789844    -0.18300
C523        C  0.08599555  0.88060184  0.54752516    -0.20100
C524        C  0.06233237  0.87256375  0.58187293    -0.12700
C525        C  0.05336868  0.83607422  0.59246841     0.04000
C526        C  0.06912846  0.80759185  0.56766972    -0.24800
H527        H  0.14193777  0.77355250  0.45381378     0.09100
H528        H  0.10266364  0.75905699  0.51492851     0.12700
H529        H  0.13097767  0.88890574  0.48061736     0.12600
H530        H  0.09197337  0.90900930  0.54020904     0.12400
H531        H  0.05064334  0.89518306  0.60004840     0.12900
H532        H  0.06250925  0.77933099  0.57523775     0.14900
C533        C  0.25398092  0.80466973  0.35295505    -0.05100
C534        C  0.29285741  0.82011658  0.33329833    -0.05100
C535        C  0.32482577  0.79791486  0.31267347    -0.23200
C536        C  0.31836264  0.75980820  0.31110991     0.19000
C537        C  0.27991487  0.74403605  0.33148964     0.16200
C538        C  0.24819372  0.76646856  0.35229301    -0.18300
C539        C  0.27342789  0.70602588  0.33044300    -0.20100
C540        C  0.30489554  0.68374414  0.30976347    -0.12700
C541        C  0.34299799  0.69894981  0.28909187     0.04000
C542        C  0.34947226  0.73715720  0.28957979    -0.24800
H543        H  0.29822654  0.84950093  0.33360595     0.09100
H544        H  0.35423032  0.81057983  0.29759138     0.12700
H545        H  0.21807307  0.75428240  0.36692525     0.12600
H546        H  0.24414765  0.69348033  0.34580114     0.12400
H547        H  0.29927055  0.65437894  0.30969493     0.12900
H548        H  0.37909756  0.74903969  0.27404138     0.14900
loop_ 
_geom_bond_atom_site_label_1 
_geom_bond_atom_site_label_2 
_geom_bond_distance 
_geom_bond_site_symmetry_2 
_ccdc_geom_bond_type 
C1            C2   1.410       .  A
C1            C6   1.403       .  A
C1          C533   1.488       .  S
C2            C3   1.411       .  A
C2            H7   1.083       .  S
C3            C4   1.408       .  A
C3          C517   1.496       .  S
C4            C5   1.404       .  A
C4            H8   1.083       .  S
C5            C6   1.402       .  A
C5          C501   1.484       .  S
C6            H9   1.084       .  S
C10          C11   1.411       .  A
C10          C15   1.408       .  A
C10         C485   1.483       .  S
C11          C12   1.406       .  A
C11          H16   1.084       .  S
C12          C13   1.401       .  A
C12         C477   1.485   1_554  S
C13          C14   1.404       .  A
C13          H17   1.084       .  S
C14          C15   1.405       .  A
C14         C453   1.489       .  S
C15          H18   1.084       .  S
O19          C35   1.276       .  A
O19         Zn25   2.035       .  S
C20         C413   1.484       .  S
C20          O36   1.275       .  A
C20          O33   1.280       .  A
O21          C34   1.274       .  A
O21         Cd28   2.065   1_455  S
O22          C40   1.279       .  A
O22         Cd31   2.108   1_455  S
O23          C37   1.276       .  A
O23         Cd27   2.064       .  S
O24          C35   1.275       .  A
O24         Cd27   2.079       .  S
Zn25         O36   2.007   1_655  S
Zn25         O38   2.022   1_655  S
Zn25         O30   1.946       .  S
O26          C37   1.278       .  A
O26         Cd31   2.092       .  S
Cd27         O29   2.075       .  S
Cd27         O30   2.003       .  S
Cd28         O32   2.053       .  S
Cd28         O41   2.064   1_655  S
Cd28         O30   1.992       .  S
O29          C39   1.275       .  A
O30         Cd31   2.020       .  S
Cd31         O33   2.096   1_655  S
O32          C39   1.274       .  A
C34         C445   1.483       .  S
C34          O38   1.275       .  A
C35         C469   1.491       .  S
C37         C397   1.482       .  S
C39         C421   1.480       .  S
C40         C525   1.493       .  S
C40          O41   1.275       .  A
C42          C43   1.407       .  A
C42          C47   1.412       .  A
C42         C405   1.495       .  S
C43          C44   1.404       .  A
C43          H48   1.083       .  S
C44          C45   1.404       .  A
C44         C357   1.487       .  S
C45          C46   1.405       .  A
C45          H49   1.084       .  S
C46          C47   1.406       .  A
C46         C381   1.486       .  S
C47          H50   1.083       .  S
C51          C52   1.405       .  A
C51          C56   1.407       .  A
C51         C389   1.481       .  S
C52          C53   1.406       .  A
C52          H57   1.084       .  S
C53          C54   1.406       .  A
C53         C341   1.485       .  S
C54          C55   1.405       .  A
C54          H58   1.084       .  S
C55          C56   1.403       .  A
C55         C325   1.485       .  S
C56          H59   1.084       .  S
O60          C76   1.275       .  A
O60         Zn66   2.009       .  S
C61         C541   1.479       .  S
C61          O77   1.273       .  A
C61          O74   1.279       .  A
O62          C75   1.271       .  A
O62         Cd69   2.059       .  S
O63          C81   1.280       .  A
O63         Cd72   2.115       .  S
O64          C78   1.279       .  A
O64         Cd68   2.084       .  S
O65          C76   1.278       .  A
O65         Cd68   2.097       .  S
Zn66         O77   2.001       .  S
Zn66         O79   2.025       .  S
Zn66         O71   1.938       .  S
O67          C78   1.279       .  A
O67         Cd72   2.090       .  S
Cd68         O70   2.110       .  S
Cd68         O71   2.022       .  S
Cd69         O73   2.038       .  S
Cd69         O82   2.045       .  S
Cd69         O71   1.981       .  S
O70          C80   1.279       .  A
O71         Cd72   2.024       .  S
Cd72         O74   2.108       .  S
O73          C80   1.272       .  A
C75         C293   1.482       .  S
C75          O79   1.273       .  A
C76         C349   1.488       .  S
C78         C493   1.484       .  S
C80         C309   1.488       .  S
C81         C373   1.488       .  S
C81          O82   1.273       .  A
C83          C84   1.411       .  A
C83          C88   1.413       .  A
C83         C285   1.494       .  S
C84          C85   1.403       .  A
C84          H89   1.082       .  S
C85          C86   1.400       .  A
C85         C261   1.480       .  S
C86          C87   1.398       .  A
C86          H90   1.084       .  S
C87          C88   1.403       .  A
C87         C301   1.481       .  S
C88          H91   1.082       .  S
C92          C93   1.406       .  A
C92          C97   1.407       .  A
C92         C253   1.479       .  S
C93          C94   1.403       .  A
C93          H98   1.084       .  S
C94          C95   1.404       .  A
C94         C317   1.484       .  S
C95          C96   1.403   1_554  A
C95          H99   1.084       .  S
C96          C97   1.403   1_556  A
C96         C237   1.480       .  S
C97         H100   1.084   1_554  S
O101        C117   1.275       .  A
O101       Zn107   2.029       .  S
C102        C229   1.484       .  S
C102        O118   1.274       .  A
C102        O115   1.277       .  A
O103        C116   1.274       .  A
O103       Cd110   2.068       .  S
O104        C122   1.279       .  A
O104       Cd113   2.102       .  S
O105        C119   1.275       .  A
O105       Cd109   2.070       .  S
O106        C117   1.275       .  A
O106       Cd109   2.068       .  S
Zn107       O118   2.001       .  S
Zn107       O120   2.032       .  S
Zn107       O112   1.944       .  S
O108        C119   1.278       .  A
O108       Cd113   2.080       .  S
Cd109       O111   2.067       .  S
Cd109       O112   2.003       .  S
Cd110       O114   2.065       .  S
Cd110       O123   2.063       .  S
Cd110       O112   1.992       .  S
O111        C121   1.274       .  A
O112       Cd113   2.014       .  S
Cd113       O115   2.088       .  S
O114        C121   1.275       .  A
C116        C365   1.486       .  S
C116        O120   1.276       .  A
C117        C221   1.478       .  S
C119        C197   1.482       .  S
C121        C269   1.480       .  S
C122        C333   1.490       .  S
C122        O123   1.275       .  A
C124        C125   1.411       .  A
C124        C129   1.412       .  A
C124        C213   1.496       .  S
C125        C126   1.402       .  A
C125        H130   1.082       .  S
C126        C127   1.400       .  A
C126        C189   1.477       .  S
C127        C128   1.400       .  A
C127        H131   1.084       .  S
C128        C129   1.405       .  A
C128        C437   1.487       .  S
C129        H132   1.082       .  S
C133        C134   1.407       .  A
C133        C138   1.406       .  A
C133        C205   1.474       .  S
C134        C135   1.402       .  A
C134        H139   1.084       .  S
C135        C136   1.400       .  A
C135        C165   1.477       .  S
C136        C137   1.401       .  A
C136        H140   1.084       .  S
C137        C138   1.403       .  A
C137        C429   1.481       .  S
C138        H141   1.084       .  S
O142        C158   1.274       .  A
O142       Zn148   2.018   1_455  S
C143        C173   1.485       .  S
C143        O159   1.274       .  A
C143        O156   1.278       .  A
O144        C157   1.274       .  A
O144       Cd151   2.067   1_455  S
O145        C163   1.278       .  A
O145       Cd154   2.096       .  S
O146        C160   1.276       .  A
O146       Cd150   2.066       .  S
O147        C158   1.274       .  A
O147       Cd150   2.067   1_455  S
Zn148       O159   1.998       .  S
Zn148       O161   2.019   1_655  S
Zn148       O153   1.936       .  S
O149        C160   1.279       .  A
O149       Cd154   2.087       .  S
Cd150       O152   2.063   1_655  S
Cd150       O153   1.997       .  S
Cd151       O155   2.065   1_655  S
Cd151       O164   2.053       .  S
Cd151       O153   1.989       .  S
O152        C162   1.273       .  A
O153       Cd154   2.017       .  S
Cd154       O156   2.094       .  S
O155        C162   1.275       .  A
C157        C509   1.482       .  S
C157        O161   1.274       .  A
C158        C277   1.479       .  S
C160        C245   1.483       .  S
C162        C181   1.480       .  S
C163        C461   1.486       .  S
C163        O164   1.274       .  A
C165        C166   1.404       .  A
C165        C170   1.406       .  A
C166        C167   1.391       .  A
C166        H175   1.084       .  S
C167        C168   1.399       .  A
C167        H176   1.084       .  S
C168        C174   1.398       .  A
C168        C169   1.414       .  A
C169        C171   1.405       .  A
C169        C170   1.410       .  A
C170        H177   1.084       .  S
C171        C172   1.403       .  A
C171        H178   1.083       .  S
C172        C173   1.407       .  A
C172        H179   1.083       .  S
C173        C174   1.406       .  A
C174        H180   1.084       .  S
C181        C182   1.408       .  A
C181        C186   1.404       .  A
C182        C183   1.399       .  A
C182        H191   1.083       .  S
C183        C184   1.402       .  A
C183        H192   1.084       .  S
C184        C190   1.406   1_554  A
C184        C185   1.415       .  A
C185        C187   1.399       .  A
C185        C186   1.400       .  A
C186        H193   1.084       .  S
C187        C188   1.393       .  A
C187        H194   1.084       .  S
C188        C189   1.404   1_554  A
C188        H195   1.083   1_554  S
C189        C190   1.405       .  A
C190        H196   1.084       .  S
C197        C198   1.405       .  A
C197        C202   1.409       .  A
C198        C199   1.396       .  A
C198        H207   1.083       .  S
C199        C200   1.401       .  A
C199        H208   1.083       .  S
C200        C206   1.402       .  A
C200        C201   1.414       .  A
C201        C203   1.405       .  A
C201        C202   1.406       .  A
C202        H209   1.084       .  S
C203        C204   1.400       .  A
C203        H210   1.083       .  S
C204        C205   1.402       .  A
C204        H211   1.083       .  S
C205        C206   1.403       .  A
C206        H212   1.084       .  S
C213        C214   1.410       .  A
C213        C218   1.409       .  A
C214        C215   1.399       .  A
C214        H223   1.082       .  S
C215        C216   1.402       .  A
C215        H224   1.084       .  S
C216        C222   1.407       .  A
C216        C217   1.413       .  A
C217        C219   1.401       .  A
C217        C218   1.402       .  A
C218        H225   1.083       .  S
C219        C220   1.395       .  A
C219        H226   1.084       .  S
C220        C221   1.404       .  A
C220        H227   1.083       .  S
C221        C222   1.407       .  A
C222        H228   1.084       .  S
C229        C230   1.408       .  A
C229        C234   1.409       .  A
C230        C231   1.393       .  A
C230        H239   1.083       .  S
C231        C232   1.398       .  A
C231        H240   1.084       .  S
C232        C238   1.401       .  A
C232        C233   1.414       .  A
C233        C235   1.405       .  A
C233        C234   1.409       .  A
C234        H241   1.084       .  S
C235        C236   1.402       .  A
C235        H242   1.083       .  S
C236        C237   1.404       .  A
C236        H243   1.083       .  S
C237        C238   1.403       .  A
C238        H244   1.085       .  S
C245        C246   1.406       .  A
C245        C250   1.408       .  A
C246        C247   1.398       .  A
C246        H255   1.083       .  S
C247        C248   1.402       .  A
C247        H256   1.083       .  S
C248        C254   1.404       .  A
C248        C249   1.414       .  A
C249        C251   1.403       .  A
C249        C250   1.404       .  A
C250        H257   1.084       .  S
C251        C252   1.398       .  A
C251        H258   1.083       .  S
C252        C253   1.403       .  A
C252        H259   1.083       .  S
C253        C254   1.405       .  A
C254        H260   1.084       .  S
C261        C262   1.405       .  A
C261        C266   1.406       .  A
C262        C263   1.393       .  A
C262        H271   1.083       .  S
C263        C264   1.399       .  A
C263        H272   1.084       .  S
C264        C270   1.400       .  A
C264        C265   1.414       .  A
C265        C267   1.402       .  A
C265        C266   1.405       .  A
C266        H273   1.084       .  S
C267        C268   1.399       .  A
C267        H274   1.084       .  S
C268        C269   1.407       .  A
C268        H275   1.083       .  S
C269        C270   1.405       .  A
C270        H276   1.084       .  S
C277        C278   1.405       .  A
C277        C282   1.406       .  A
C278        C279   1.396       .  A
C278        H287   1.083       .  S
C279        C280   1.401       .  A
C279        H288   1.083       .  S
C280        C286   1.403       .  A
C280        C281   1.413       .  A
C281        C283   1.400       .  A
C281        C282   1.405       .  A
C282        H289   1.084       .  S
C283        C284   1.397       .  A
C283        H290   1.083       .  S
C284        C285   1.410       .  A
C284        H291   1.082       .  S
C285        C286   1.409       .  A
C286        H292   1.083       .  S
C293        C294   1.407       .  A
C293        C298   1.406       .  A
C294        C295   1.397       .  A
C294        H303   1.083       .  S
C295        C296   1.401       .  A
C295        H304   1.084       .  S
C296        C302   1.405       .  A
C296        C297   1.414       .  A
C297        C299   1.401       .  A
C297        C298   1.404       .  A
C298        H305   1.084       .  S
C299        C300   1.396       .  A
C299        H306   1.084       .  S
C300        C301   1.405       .  A
C300        H307   1.083       .  S
C301        C302   1.405       .  A
C302        H308   1.084       .  S
C309        C310   1.409       .  A
C309        C314   1.411       .  A
C310        C311   1.389       .  A
C310        H319   1.083       .  S
C311        C312   1.395       .  A
C311        H320   1.084       .  S
C312        C318   1.398       .  A
C312        C313   1.414       .  A
C313        C315   1.406       .  A
C313        C314   1.413       .  A
C314        H321   1.084       .  S
C315        C316   1.405       .  A
C315        H322   1.084       .  S
C316        C317   1.406       .  A
C316        H323   1.083       .  S
C317        C318   1.401       .  A
C318        H324   1.085       .  S
C325        C326   1.405       .  A
C325        C330   1.404       .  A
C326        C327   1.403       .  A
C326        H335   1.083       .  S
C327        C328   1.405       .  A
C327        H336   1.083       .  S
C328        C334   1.411       .  A
C328        C329   1.414       .  A
C329        C331   1.399       .  A
C329        C330   1.404       .  A
C330        H337   1.085       .  S
C331        C332   1.395       .  A
C331        H338   1.084       .  S
C332        C333   1.409       .  A
C332        H339   1.083       .  S
C333        C334   1.411       .  A
C334        H340   1.084       .  S
C341        C342   1.406       .  A
C341        C346   1.404       .  A
C342        C343   1.402       .  A
C342        H351   1.083       .  S
C343        C344   1.405       .  A
C343        H352   1.083       .  S
C344        C350   1.410       .  A
C344        C345   1.414       .  A
C345        C347   1.399       .  A
C345        C346   1.402       .  A
C346        H353   1.085       .  S
C347        C348   1.394       .  A
C347        H354   1.084       .  S
C348        C349   1.408       .  A
C348        H355   1.083       .  S
C349        C350   1.410       .  A
C350        H356   1.084       .  S
C357        C358   1.406       .  A
C357        C362   1.407       .  A
C358        C359   1.397       .  A
C358        H367   1.083       .  S
C359        C360   1.402       .  A
C359        H368   1.084       .  S
C360        C366   1.405       .  A
C360        C361   1.414       .  A
C361        C363   1.402       .  A
C361        C362   1.407       .  A
C362        H369   1.084       .  S
C363        C364   1.399       .  A
C363        H370   1.083       .  S
C364        C365   1.407       .  A
C364        H371   1.083       .  S
C365        C366   1.408       .  A
C366        H372   1.084       .  S
C373        C374   1.408       .  A
C373        C378   1.410       .  A
C374        C375   1.393       .  A
C374        H383   1.083       .  S
C375        C376   1.398       .  A
C375        H384   1.083       .  S
C376        C382   1.404   1_554  A
C376        C377   1.415       .  A
C377        C379   1.405       .  A
C377        C378   1.413       .  A
C378        H385   1.083       .  S
C379        C380   1.403   1_554  A
C379        H386   1.083       .  S
C380        C381   1.406       .  A
C380        H387   1.083       .  S
C381        C382   1.404       .  A
C382        H388   1.084       .  S
C389        C390   1.404       .  A
C389        C394   1.403       .  A
C390        C391   1.402       .  A
C390        H399   1.083       .  S
C391        C392   1.406       .  A
C391        H400   1.083       .  S
C392        C398   1.409       .  A
C392        C393   1.414       .  A
C393        C395   1.399       .  A
C393        C394   1.401       .  A
C394        H401   1.084       .  S
C395        C396   1.394       .  A
C395        H402   1.083       .  S
C396        C397   1.406       .  A
C396        H403   1.083       .  S
C397        C398   1.409       .  A
C398        H404   1.084       .  S
C405        C406   1.407       .  A
C405        C410   1.412       .  A
C406        C407   1.397       .  A
C406        H415   1.082       .  S
C407        C408   1.402       .  A
C407        H416   1.084       .  S
C408        C414   1.403       .  A
C408        C409   1.411       .  A
C409        C411   1.404       .  A
C409        C410   1.406       .  A
C410        H417   1.083       .  S
C411        C412   1.400       .  A
C411        H418   1.083       .  S
C412        C413   1.405       .  A
C412        H419   1.083       .  S
C413        C414   1.409       .  A
C414        H420   1.084       .  S
C421        C422   1.407       .  A
C421        C426   1.405       .  A
C422        C423   1.401       .  A
C422        H431   1.083       .  S
C423        C424   1.404       .  A
C423        H432   1.084       .  S
C424        C430   1.406   1_565  A
C424        C425   1.414       .  A
C425        C427   1.399   1_565  A
C425        C426   1.398       .  A
C426        H433   1.084       .  S
C427        C428   1.391       .  A
C427        H434   1.084       .  S
C428        C429   1.406       .  A
C428        H435   1.083       .  S
C429        C430   1.407       .  A
C430        H436   1.084       .  S
C437        C438   1.407       .  A
C437        C442   1.407   1_545  A
C438        C439   1.398       .  A
C438        H447   1.083       .  S
C439        C440   1.402   1_545  A
C439        H448   1.084       .  S
C440        C446   1.404       .  A
C440        C441   1.413       .  A
C441        C443   1.401       .  A
C441        C442   1.402       .  A
C442        H449   1.084       .  S
C443        C444   1.396       .  A
C443        H450   1.084       .  S
C444        C445   1.407       .  A
C444        H451   1.083       .  S
C445        C446   1.408       .  A
C446        H452   1.084       .  S
C453        C454   1.407       .  A
C453        C458   1.405       .  A
C454        C455   1.404       .  A
C454        H463   1.083       .  S
C455        C456   1.405       .  A
C455        H464   1.083       .  S
C456        C462   1.411       .  A
C456        C457   1.413       .  A
C457        C459   1.397       .  A
C457        C458   1.399       .  A
C458        H465   1.084       .  S
C459        C460   1.391       .  A
C459        H466   1.084       .  S
C460        C461   1.408   1_565  A
C460        H467   1.083       .  S
C461        C462   1.411   1_545  A
C462        H468   1.084   1_565  S
C469        C470   1.408       .  A
C469        C474   1.408       .  A
C470        C471   1.401       .  A
C470        H479   1.083       .  S
C471        C472   1.402       .  A
C471        H480   1.083       .  S
C472        C478   1.411       .  A
C472        C473   1.415       .  A
C473        C475   1.401       .  A
C473        C474   1.407       .  A
C474        H481   1.084       .  S
C475        C476   1.396       .  A
C475        H482   1.084       .  S
C476        C477   1.406       .  A
C476        H483   1.084   1_556  S
C477        C478   1.406       .  A
C478        H484   1.084       .  S
C485        C486   1.404       .  A
C485        C490   1.406       .  A
C486        C487   1.402       .  A
C486        H495   1.083       .  S
C487        C488   1.405       .  A
C487        H496   1.083       .  S
C488        C494   1.409       .  A
C488        C489   1.414       .  A
C489        C491   1.402       .  A
C489        C490   1.405       .  A
C490        H497   1.084       .  S
C491        C492   1.398       .  A
C491        H498   1.083       .  S
C492        C493   1.405       .  A
C492        H499   1.083       .  S
C493        C494   1.409       .  A
C494        H500   1.084       .  S
C501        C502   1.406       .  A
C501        C506   1.406       .  A
C502        C503   1.396       .  A
C502        H511   1.083       .  S
C503        C504   1.401       .  A
C503        H512   1.084       .  S
C504        C510   1.404       .  A
C504        C505   1.414       .  A
C505        C507   1.402   1_565  A
C505        C506   1.405       .  A
C506        H513   1.084       .  S
C507        C508   1.398       .  A
C507        H514   1.084       .  S
C508        C509   1.407       .  A
C508        H515   1.083       .  S
C509        C510   1.407   1_545  A
C510        H516   1.084       .  S
C517        C518   1.408       .  A
C517        C522   1.408       .  A
C518        C519   1.403       .  A
C518        H527   1.082       .  S
C519        C520   1.404       .  A
C519        H528   1.084       .  S
C520        C526   1.412       .  A
C520        C521   1.414       .  A
C521        C523   1.399       .  A
C521        C522   1.405       .  A
C522        H529   1.084       .  S
C523        C524   1.396       .  A
C523        H530   1.084       .  S
C524        C525   1.409       .  A
C524        H531   1.083       .  S
C525        C526   1.411       .  A
C526        H532   1.084       .  S
C533        C534   1.408       .  A
C533        C538   1.404       .  A
C534        C535   1.401       .  A
C534        H543   1.083       .  S
C535        C536   1.403       .  A
C535        H544   1.083       .  S
C536        C542   1.411       .  A
C536        C537   1.416       .  A
C537        C539   1.400       .  A
C537        C538   1.404       .  A
C538        H545   1.084       .  S
C539        C540   1.395       .  A
C539        H546   1.083       .  S
C540        C541   1.405       .  A
C540        H547   1.084       .  S
C541        C542   1.407       .  A
C542        H548   1.084       .  S
