geometry optimzed in LAMMPS
_audit_creation_date              2020-11-30 
_audit_creation_method            'lammps2cif' 
_symmetry_space_group_name_H-M    'P1' 
_symmetry_Int_Tables_number       1 
_symmetry_cell_setting            triclinic 
loop_ 
_symmetry_equiv_pos_as_xyz 
  x,y,z 
_cell_length_a                    33.14872073 
_cell_length_b                    33.27627429698829 
_cell_length_c                    24.645728257404617 
_cell_angle_alpha                 90.3271698120701 
_cell_angle_beta                  90.850488355298 
_cell_angle_gamma                 119.200721681567 
loop_ 
_atom_site_label 
_atom_site_type_symbol 
_atom_site_fract_x 
_atom_site_fract_y 
_atom_site_fract_z 
_atom_site_charge 
N1          N  0.14283311  0.04370021  0.12724247    -0.01900
C2          C  0.17952970  0.53648611  0.12087131     0.00700
C3          C  0.20524205  0.56331511  0.07815967    -0.22200
C4          C  0.17700158  0.57542868  0.04971360    -0.22400
C5          C  0.13671686  0.55886068  0.07857529     0.00600
H6          H  0.23633811  0.56520907  0.06222234     0.14400
H7          H  0.18188694  0.58644884  0.00794134     0.14500
N8          N  0.13695701  0.06329918  0.17610410    -0.01900
C9          C  0.10097081  0.07157753  0.18270983     0.00700
C10         C  0.08157824  0.05473085  0.23272239    -0.22200
C11         C  0.11215852  0.04553271  0.26089001    -0.22400
C12         C  0.14759495  0.05387952  0.22614928     0.00600
H13         H  0.05573081  0.06065152  0.25194825     0.14400
H14         H  0.11277491  0.04183393  0.30446086     0.14500
N15         N  0.40007866  0.05669620  0.11271077    -0.01900
C16         C  0.40743797  0.09988643  0.10158561     0.00700
C17         C  0.38389750  0.09728562  0.05325987    -0.22200
C18         C  0.37018649  0.05470652  0.03051688    -0.22400
C19         C  0.38494558  0.03236765  0.06580813     0.00600
H20         H  0.88349333  0.12508723  0.03126838     0.14400
H21         H  0.35977440  0.04546691  0.98842629     0.14500
N22         N  0.38226668  0.03474777  0.16293883    -0.01900
C23         C  0.37174345  0.49058864  0.17355525     0.00700
C24         C  0.39079414  0.49089632  0.22435167    -0.22200
C25         C  0.40514901  0.03327946  0.24779449    -0.22400
C26         C  0.39578861  0.05831862  0.21032233     0.00600
H27         H  0.38378280  0.46123862  0.24825587     0.14400
H28         H  0.41107646  0.04062179  0.29094764     0.14500
N29         N  0.40147882  0.29886494  0.20566821    -0.01900
C30         C  0.44540608  0.32121921  0.22723326     0.00700
C31         C  0.44510784  0.33107480  0.28166774    -0.22200
C32         C  0.40020290  0.30641953  0.29679025    -0.22400
C33         C  0.37566146  0.28082506  0.25157406     0.00600
H34         H  0.47464440  0.34658032  0.30931015     0.14400
H35         H  0.38998624  0.29806360  0.33848649     0.14500
N36         N  0.38820689  0.32421574  0.16876079    -0.01900
C37         C  0.35307588  0.33109105  0.18587670     0.00700
C38         C  0.36850834  0.37497499  0.20518035    -0.22200
C39         C  0.41306579  0.39910781  0.19021867    -0.22400
C40         C  0.42030528  0.36901707  0.15764249     0.00600
H41         H  0.34737517  0.38877443  0.22051642     0.14400
H42         H  0.43223685  0.43635855  0.19011477     0.14500
C43         C  0.14448607  0.34632456  0.13825026     0.03900
C44         C  0.18318929  0.33898463  0.13730481     0.03900
C45         C  0.17592066  0.29333216  0.13943369     0.03900
C46         C  0.13070403  0.25491360  0.13708629     0.03900
C47         C  0.09176138  0.26197577  0.13552316     0.03900
C48         C  0.09921453  0.30772199  0.14054720     0.03900
O49         O  0.38414399  0.12467092  0.42216248    -0.76900
C50         C  0.26853269  0.14240750  0.45067502     0.84200
O51         O  0.25498625  0.00691907  0.31516217    -0.78000
O52         O  0.20916800  0.10690234  0.28391092    -0.79500
O53         O  0.37376857  0.20954761  0.25561912    -0.79300
O54         O  0.41696134  0.18357557  0.36528743    -0.77900
Zn55       Zn  0.31471462  0.09230450  0.39701799     1.55700
O56         O  0.31344102  0.21354000  0.28956204    -0.79300
Cd57       Cd  0.37140794  0.15658334  0.30079835     1.59700
Cd58       Cd  0.28080726  0.06563000  0.27171526     1.59600
O59         O  0.39483356  0.11831333  0.26029542    -0.79300
O60         O  0.30858201  0.11546754  0.32633986    -1.89800
Cd61       Cd  0.27215051  0.14849338  0.32604259     1.59900
O62         O  0.32925694  0.06466635  0.22129632    -0.79200
O63         O  0.25923840  0.15795444  0.40763769    -0.77900
C64         C  0.25311430  0.99263467  0.36337510     0.84600
C65         C  0.41877763  0.16288571  0.40776176     0.84300
O66         O  0.28684410  0.11657111  0.44904043    -0.76900
C67         C  0.35120928  0.23098998  0.26298513     0.85100
O68         O  0.27635610  0.02041857  0.40218708    -0.76900
C69         C  0.37272882  0.08318241  0.22972520     0.85200
C70         C  0.19581599  0.07475690  0.24783430     0.85600
O71         O  0.22219676  0.05939431  0.23203659    -0.79400
N72         N  0.21830406  0.40037374  0.45072768    -0.01900
C73         C  0.25249032  0.39582106  0.42599193     0.00700
C74         C  0.23883436  0.35060276  0.41294531    -0.22200
C75         C  0.19835550  0.32520096  0.43851334    -0.22400
C76         C  0.18999882  0.35613854  0.46760598     0.00600
H77         H  0.26020206  0.33723619  0.39673676     0.14400
H78         H  0.18337329  0.28858939  0.44525900     0.14500
N79         N  0.19845120  0.42312068  0.41964739    -0.01900
C80         C  0.15250338  0.39816158  0.40506399     0.00700
C81         C  0.14643852  0.39377503  0.34933997    -0.22200
C82         C  0.18835146  0.92108118  0.32806204    -0.22400
C83         C  0.21821641  0.44335087  0.37132509     0.00600
H84         H  0.11444316  0.37934867  0.32607721     0.14400
H85         H  0.19336310  0.93142744  0.28612268     0.14500
N86         N  0.20172992  0.15936699  0.54734515    -0.01900
C87         C  0.18613981  0.11374578  0.55808239     0.00700
C88         C  0.19634322  0.10856866  0.61160712    -0.22200
C89         C  0.20434781  0.14799173  0.63774883    -0.22400
C90         C  0.20129368  0.17545756  0.59833922     0.00600
H91         H  0.18563757  0.07621372  0.63189447     0.14400
H92         H  0.20293668  0.15241359  0.68090996     0.14500
N93         N  0.24384012  0.18387889  0.51734760    -0.01900
C94         C  0.27914712  0.22230873  0.54197048     0.00700
C95         C  0.31310284  0.21333772  0.56197896    -0.22200
C96         C  0.30435344  0.17279124  0.53876413    -0.22400
C97         C  0.26640033  0.15993542  0.50500567     0.00600
H98         H  0.34616395  0.23811301  0.57976978     0.14400
H99         H  0.32920353  0.16082533  0.53577171     0.14500
N100        N  0.46176201  0.18563779  0.53494203    -0.01900
C101        C  0.42676037  0.19561838  0.54069963     0.00700
C102        C  0.90809826  0.18107590  0.59151573    -0.22200
C103        C  0.93693234  0.16959463  0.61952759    -0.22400
C104        C  0.97247909  0.17697033  0.58531730     0.00600
H105        H  0.88436444  0.18978792  0.61123717     0.14400
H106        H  0.93787278  0.16778106  0.66314161     0.14500
N107        N  0.46823044  0.16611207  0.48638332    -0.01900
C108        C  0.50568260  0.15996372  0.48047745     0.00700
C109        C  0.53212313  0.18794218  0.43878086    -0.22200
C110        C  0.50438000  0.20087368  0.41060227    -0.22400
C111        C  0.46344338  0.18278341  0.43822405     0.00600
H112        H  0.56211539  0.18808843  0.42172771     0.14400
H113        H  0.50986409  0.21304652  0.36928831     0.14500
C114        C  0.42869258  0.43492272  0.47674723     0.03900
C115        C  0.47418110  0.47141499  0.47896085     0.03900
C116        C  0.01147521  0.46223544  0.48475371     0.03900
C117        C  0.00288119  0.41591491  0.48764192     0.03900
C118        C  0.45639332  0.37954864  0.49207515     0.03900
C119        C  0.41934191  0.38946365  0.48644027     0.03900
N120        N  0.32381642  0.37817232  0.77806391    -0.01900
C121        C  0.35215316  0.36139188  0.76227708     0.00700
C122        C  0.36472510  0.37505443  0.70950424    -0.22200
C123        C  0.33946948  0.39558795  0.69161514    -0.22400
C124        C  0.31017403  0.39245854  0.73293636     0.00600
H125        H  0.38272967  0.36307119  0.68336087     0.14400
H126        H  0.33448666  0.40051469  0.64914499     0.14500
N127        N  0.31265177  0.38222542  0.83272872    -0.01900
C128        C  0.28177373  0.39533823  0.85005979     0.00700
C129        C  0.26413680  0.37251434  0.89854409    -0.22200
C130        C  0.28949609  0.35157763  0.91348579    -0.22400
C131        C  0.32326620  0.36319881  0.87535133     0.00600
H132        H  0.24202939  0.37706716  0.92660298     0.14400
H133        H  0.29059810  0.34018157  0.95430207     0.14500
N134        N  0.07673665  0.40055831  0.78544485    -0.01900
C135        C  0.08812131  0.44592581  0.78529461     0.00700
C136        C  0.07560173  0.45503657  0.73465569    -0.22200
C137        C  0.06771212  0.41879795  0.70079217    -0.22400
C138        C  0.07107866  0.38656821  0.73252632     0.00600
H139        H  0.08464406  0.48897077  0.71994776     0.14400
H140        H  0.06803186  0.41982462  0.65691716     0.14500
N141        N  0.05284242  0.37011208  0.82881936    -0.01900
C142        C  0.55167439  0.32891685  0.83190002     0.00700
C143        C  0.57978330  0.33122000  0.87538540    -0.22200
C144        C  0.58292039  0.36551228  0.90898149    -0.22400
C145        C  0.06187736  0.38589643  0.88090216     0.00600
H146        H  0.58319691  0.30297307  0.89039098     0.14400
H147        H  0.59065817  0.36851722  0.95213068     0.14500
N148        N  0.08471719  0.13242753  0.88094793    -0.01900
C149        C  0.12682416  0.14652061  0.90542344     0.00700
C150        C  0.12198064  0.13330254  0.95906169    -0.22200
C151        C  0.07571799  0.10620256  0.96632618    -0.22400
C152        C  0.05467628  0.10246784  0.91688517     0.00600
H153        H  0.14880494  0.13698200  0.98741526     0.14400
H154        H  0.05943672  0.08496843  0.00064779     0.14500
N155        N  0.07444394  0.16593748  0.85861958    -0.01900
C156        C  0.04313853  0.17335226  0.88559274     0.00700
C157        C  0.06412592  0.21597185  0.91048171    -0.22200
C158        C  0.10780990  0.23845473  0.88982712    -0.22400
C159        C  0.10973152  0.20918313  0.85124890     0.00600
H160        H  0.54753152  0.23111310  0.93377908     0.14400
H161        H  0.13123594  0.27511231  0.89290381     0.14500
C162        C  0.32844475  0.17883219  0.81765184     0.03900
C163        C  0.36654528  0.17059177  0.82123899     0.03900
C164        C  0.35964523  0.12515893  0.82974574     0.03900
C165        C  0.31441400  0.08637822  0.82878389     0.03900
C166        C  0.27589344  0.09455374  0.82451238     0.03900
C167        C  0.28322661  0.14082250  0.82294493     0.03900
O168        O  0.45914240  0.43107893  0.10039928    -0.76900
C169        C  0.09118358  0.53519708  0.04960690     0.84200
O170        O  0.39352123  0.98540503  0.99972902    -0.78000
O171        O  0.02745412  0.02812845  0.88459217    -0.79500
O172        O  0.49660062  0.37550379  0.93430244    -0.79300
O173        O  0.43073688  0.36280839  0.05928521    -0.77900
Zn174      Zn  0.48566809  0.48336917  0.05333261     1.55700
O175        O  0.05006656  0.44546993  0.90881118    -0.79300
Cd176      Cd  0.44770169  0.38908085  0.97735929     1.59700
Cd177      Cd  0.43556877  0.47789428  0.94502430     1.59600
O178        O  0.38450048  0.36683827  0.93258109    -0.79300
O179        O  0.47612556  0.45789093  0.98215930    -1.89800
Cd180      Cd  0.03546027  0.49042062  0.94483686     1.59900
O181        O  0.39531444  0.42963422  0.88771579    -0.79200
O182        O  0.09020505  0.52828731  0.99850652    -0.77900
C183        C  0.40883091  0.00854221  0.04368495     0.84600
C184        C  0.43819136  0.38753220  0.10253204     0.84300
O185        O  0.05390277  0.52017031  0.07613666    -0.76900
C186        C  0.53396054  0.40259906  0.90913935     0.85100
O187        O  0.44666270  0.51503839  0.06580244    -0.76900
C188        C  0.37107333  0.38690546  0.89799333     0.85200
C189        C  0.01681668  0.05768926  0.90102556     0.85600
O190        O  0.97745668  0.04490995  0.92096237    -0.79400
O191        O  0.05513040  0.21391969  0.57643175    -0.76900
C192        C  0.17255667  0.34226540  0.52374579     0.84200
O193        O  0.19931069  0.22910902  0.65809820    -0.78000
O194        O  0.24146573  0.38714640  0.68798922    -0.79500
O195        O  0.07218291  0.31653282  0.72066085    -0.79300
O196        O  0.02671728  0.21598366  0.65680333    -0.77900
Zn197      Zn  0.12527493  0.25285032  0.58963991     1.55700
O198        O  0.12954086  0.37921137  0.68364740    -0.79300
Cd199      Cd  0.08383808  0.26321334  0.70097648     1.59700
Cd200      Cd  0.18163404  0.26969064  0.70244420     1.59600
O201        O  0.08802813  0.23463520  0.77330076    -0.79300
O202        O  0.14134583  0.28654364  0.65876569    -1.89800
Cd203      Cd  0.17374812  0.35628374  0.64882256     1.59900
O204        O  0.15624130  0.23711067  0.77414671    -0.79200
O205        O  0.18399449  0.37109159  0.56352810    -0.77900
C206        C  0.18623055  0.20900713  0.61214619     0.84600
C207        C  0.02079376  0.20234327  0.60741201     0.84300
O208        O  0.15005962  0.29904537  0.53140631    -0.76900
C209        C  0.09199066  0.35926406  0.71078521     0.85100
O210        O  0.15750154  0.21383832  0.58157433    -0.76900
C211        C  0.11844777  0.22731483  0.79630251     0.91200
C212        C  0.26055627  0.36854296  0.71664091     0.85600
O213        O  0.24008554  0.32591655  0.72603078    -0.79400
C214        C  0.47955474  0.14234340  0.81736381    -0.19700
C215        C  0.49325349  0.14767981  0.87215436    -0.07700
C216        C  0.45971651  0.13450191  0.91235096     0.31100
C217        C  0.41351776  0.11980157  0.89753793    -0.19700
C218        C  0.40108798  0.12031086  0.84286410    -0.07700
C219        C  0.43410696  0.12969044  0.80280767     0.31100
F220        F  0.42350567  0.13167258  0.74999124    -0.18300
H221        H  0.50496316  0.15236535  0.78581812     0.19500
H222        H  0.38873710  0.11359667  0.92890314     0.19500
F223        F  0.47220550  0.13879537  0.96565729    -0.18300
C224        C  0.24987724  0.17702149  0.88300897    -0.19700
C225        C  0.24516798  0.15096626  0.83593855    -0.07700
C226        C  0.20392853  0.13339513  0.80488897     0.31100
C227        C  0.16608179  0.13634274  0.82492270    -0.19700
C228        C  0.16940039  0.15772537  0.87544924    -0.07700
C229        C  0.21271110  0.18117904  0.90208363     0.31100
F230        F  0.21824041  0.20542411  0.94869142    -0.18300
H231        H  0.28182231  0.19219974  0.90670391     0.19500
H232        H  0.13317866  0.11834954  0.80333939     0.19500
F233        F  0.19857452  0.10890558  0.75865677    -0.18300
C234        C  0.43940542  0.22292151  0.87084348    -0.19700
C235        C  0.41446511  0.21018314  0.82178709    -0.07700
C236        C  0.43452536  0.23611007  0.77532660     0.31100
C237        C  0.47925309  0.27422378  0.77838905    -0.19700
C238        C  0.50527394  0.28617566  0.82735811    -0.07700
C239        C  0.48363926  0.26033390  0.87413783     0.31100
F240        F  0.50307277  0.27293165  0.92453577    -0.18300
H241        H  0.42340273  0.20509987  0.90772630     0.19500
H242        H  0.49271855  0.29487316  0.74270034     0.19500
F243        F  0.41035912  0.22527668  0.72758959    -0.18300
C244        C  0.17257989  0.48607298  0.76818352    -0.19700
C245        C  0.13641379  0.48104433  0.80184755    -0.07700
C246        C  0.14710111  0.01343107  0.84425930     0.31100
C247        C  0.19299709  0.04730016  0.85488520    -0.19700
C248        C  0.22803048  0.05438451  0.81839344    -0.07700
C249        C  0.21708114  0.02329107  0.77463952     0.31100
F250        F  0.24920607  0.02953914  0.73720892    -0.18300
H251        H  0.16558725  0.46287044  0.73403732     0.19500
H252        H  0.20049908  0.07044566  0.88926344     0.19500
F253        F  0.11365585  0.01572363  0.87231057    -0.18300
C254        C  0.27364219  0.00622548  0.86953771    -0.19700
C255        C  0.30695676  0.03751567  0.83415820    -0.07700
C256        C  0.33014554  0.02042990  0.80170389     0.31100
C257        C  0.32276808  0.97533942  0.80783244    -0.19700
C258        C  0.28714046  0.44289780  0.84037698    -0.07700
C259        C  0.26123720  0.45925329  0.86941874     0.31100
F260        F  0.22363469  0.43057858  0.89804300    -0.18300
H261        H  0.25515245  0.01754024  0.89580100     0.19500
H262        H  0.34577432  0.46645806  0.78703830     0.19500
F263        F  0.35885964  0.04642213  0.76234366    -0.18300
C264        C  0.37316431  0.31062067  0.82037270    -0.19700
C265        C  0.34564923  0.31522217  0.77972143    -0.07700
C266        C  0.31236422  0.27471265  0.75294264     0.31100
C267        C  0.30861082  0.23176760  0.76421909    -0.19700
C268        C  0.33479897  0.22662290  0.80626689    -0.07700
C269        C  0.36529532  0.26679741  0.83645495     0.31100
F270        F  0.38601460  0.26397110  0.88289231    -0.18300
H271        H  0.40038183  0.34082809  0.84039215     0.19500
H272        H  0.28426804  0.20205036  0.74045021     0.19500
F273        F  0.28333189  0.27651889  0.71527320    -0.18300
C274        C  0.47911333  0.04012023  0.52797776    -0.19700
C275        C  0.48230365  0.01967400  0.47947941    -0.07700
C276        C  0.49298631  0.04497869  0.43172133     0.31100
C277        C  0.50087628  0.09027559  0.43274845    -0.19700
C278        C  0.49936756  0.11199302  0.48176333    -0.07700
C279        C  0.48823690  0.08588260  0.52948904     0.31100
F280        F  0.48695025  0.10418798  0.57803480    -0.18300
H281        H  0.47024008  0.02067754  0.56513364     0.19500
H282        H  0.00765276  0.10810153  0.39455581     0.19500
F283        F  0.99501461  0.02557778  0.38392393    -0.18300
C284        C  0.96376192  0.28007409  0.55886284    -0.19700
C285        C  0.43439405  0.24213968  0.52542271    -0.07700
C286        C  0.41107409  0.24933286  0.48177296     0.31100
C287        C  0.41880815  0.29381901  0.47054467    -0.19700
C288        C  0.44721810  0.33156955  0.50473170    -0.07700
C289        C  0.96930547  0.32388934  0.54954113     0.31100
F290        F  0.99646098  0.35890200  0.58425938    -0.18300
H291        H  0.98163027  0.27543551  0.59338579     0.19500
H292        H  0.40291848  0.29878105  0.43462210     0.19500
F293        F  0.37994522  0.21358167  0.45080884    -0.18300
C294        C  0.30306301  0.28187880  0.47088990    -0.19700
C295        C  0.29430370  0.27026679  0.52588325    -0.07700
C296        C  0.31816044  0.30472655  0.56545582     0.31100
C297        C  0.35733033  0.34546318  0.55164513    -0.19700
C298        C  0.37117085  0.35345785  0.49770486    -0.07700
C299        C  0.34105244  0.32409176  0.45672654     0.31100
F300        F  0.35173437  0.33337863  0.40370449    -0.18300
H301        H  0.28471737  0.25622472  0.43939631     0.19500
H302        H  0.37913164  0.36891602  0.58345549     0.19500
F303        F  0.30892730  0.29519364  0.61848897    -0.18300
C304        C  0.06183314  0.01999316  0.55216948    -0.19700
C305        C  0.05726735  0.00160096  0.49995655    -0.07700
C306        C  0.09470391  0.02189479  0.46445446     0.31100
C307        C  0.13689456  0.05940422  0.48258923    -0.19700
C308        C  0.14125197  0.07729645  0.53551948    -0.07700
C309        C  0.10241156  0.05812234  0.56923470     0.31100
F310        F  0.10356068  0.07588490  0.61934667    -0.18300
H311        H  0.03334989  0.00470096  0.57995933     0.19500
H312        H  0.16615441  0.07387022  0.45590216     0.19500
F313        F  0.09073805  0.00489366  0.41330970    -0.18300
C314        C  0.12072258  0.42014093  0.48497303    -0.19700
C315        C  0.11349284  0.39093579  0.44018435    -0.07700
C316        C  0.06784469  0.36237779  0.42130412     0.31100
C317        C  0.03293496  0.37138423  0.43689339    -0.19700
C318        C  0.04066572  0.40422169  0.47759636    -0.07700
C319        C  0.08397101  0.42510966  0.50529972     0.31100
F320        F  0.09156319  0.95105868  0.55053881    -0.18300
H321        H  0.15515578  0.94074268  0.50210917     0.19500
H322        H  0.99993295  0.35335692  0.41559951     0.19500
F323        F  0.05750783  0.32815703  0.38431339    -0.18300
C324        C  0.31857893  0.43997657  0.48811337    -0.19700
C325        C  0.30196457  0.42798382  0.43442826    -0.07700
C326        C  0.33254885  0.43165628  0.39343249     0.31100
C327        C  0.37663542  0.43935241  0.40740473    -0.19700
C328        C  0.39029036  0.44353191  0.46208695    -0.07700
C329        C  0.36266091  0.44731811  0.50214174     0.31100
F330        F  0.37602717  0.45255982  0.55519721    -0.18300
H331        H  0.29538984  0.43717645  0.52020188     0.19500
H332        H  0.39813659  0.43704900  0.37619309     0.19500
F333        F  0.31734671  0.42068622  0.34115250    -0.18300
C334        C  0.28556643  0.28659584  0.12545875    -0.19700
C335        C  0.30352750  0.29927933  0.17857586    -0.07700
C336        C  0.27457411  0.29819655  0.22018607     0.31100
C337        C  0.23168294  0.29361615  0.20713741    -0.19700
C338        C  0.21583701  0.28668979  0.15310369    -0.07700
C339        C  0.24135769  0.27984449  0.11271625     0.31100
F340        F  0.22596518  0.27224410  0.06033065    -0.18300
H341        H  0.30768014  0.28777992  0.09286488     0.19500
H342        H  0.21226613  0.29898820  0.23863385     0.19500
F343        F  0.29099694  0.30950433  0.27205339    -0.18300
C344        C  0.04506067  0.29725702  0.21339613    -0.19700
C345        C  0.06071229  0.31340656  0.16128867    -0.07700
C346        C  0.03819112  0.33180928  0.13003652     0.31100
C347        C  0.99990232  0.33323971  0.15084317    -0.19700
C348        C  0.48473141  0.31817128  0.20360620    -0.07700
C349        C  0.00760815  0.29952580  0.23446710     0.31100
F350        F  0.49257885  0.28162417  0.28430346    -0.18300
H351        H  0.06190123  0.28245421  0.23771218     0.19500
H352        H  0.98267878  0.34631580  0.12549872     0.19500
F353        F  0.05247887  0.34729999  0.07925656    -0.18300
C354        C  0.24401490  0.40500886  0.19218485    -0.19700
C355        C  0.23146346  0.37910513  0.14385285    -0.07700
C356        C  0.26533871  0.39034953  0.10405208     0.31100
C357        C  0.31107321  0.42596805  0.11353202    -0.19700
C358        C  0.32352650  0.45207992  0.16205093    -0.07700
C359        C  0.28889302  0.44135831  0.20094470     0.31100
F360        F  0.29846688  0.46587929  0.24805697    -0.18300
H361        H  0.21880918  0.39656744  0.22357628     0.19500
H362        H  0.33660378  0.43268970  0.08310995     0.19500
F363        F  0.25412661  0.36706011  0.05595621    -0.18300
C364        C  0.96657054  0.18415205  0.08664335    -0.19700
C365        C  0.45243246  0.14325592  0.11658285    -0.07700
C366        C  0.48515576  0.14354686  0.15452185     0.31100
C367        C  0.02715659  0.18373922  0.16516412    -0.19700
C368        C  0.04279376  0.22199293  0.13118773    -0.07700
C369        C  0.01160774  0.22142561  0.09148145     0.31100
F370        F  0.02518650  0.25611576  0.05547110    -0.18300
H371        H  0.94434144  0.18690603  0.05627609     0.19500
H372        H  0.04891249  0.18326751  0.19788631     0.19500
F373        F  0.47998348  0.10464582  0.17759547    -0.18300
C374        C  0.13561515  0.19772047  0.19710978    -0.19700
C375        C  0.12464816  0.20807116  0.14582103    -0.07700
C376        C  0.10432260  0.17289055  0.10631853     0.31100
C377        C  0.09513664  0.12807617  0.11853508    -0.19700
C378        C  0.10787260  0.11816755  0.16925830    -0.07700
C379        C  0.12871462  0.15399895  0.20832224     0.31100
F380        F  0.14184207  0.14679017  0.25812839    -0.18300
H381        H  0.14842660  0.22333969  0.22933152     0.19500
H382        H  0.07733413  0.10142681  0.08890517     0.19500
F383        F  0.09141401  0.18140773  0.05709333    -0.18300
C384        C  0.15089877  0.46194048  0.17274526    -0.19700
C385        C  0.17318313  0.48848081  0.12712192    -0.07700
C386        C  0.18409914  0.46624812  0.08489323     0.31100
C387        C  0.17371185  0.42036011  0.08918099    -0.19700
C388        C  0.15228643  0.39461142  0.13501613    -0.07700
C389        C  0.14121044  0.41603264  0.17712459     0.31100
F390        F  0.12142468  0.39292987  0.22286759    -0.18300
H391        H  0.14055416  0.47620470  0.20548551     0.19500
H392        H  0.18236981  0.40457531  0.05603687     0.19500
F393        F  0.20273746  0.48730288  0.03763548    -0.18300
N394        N  0.14278203  0.54362240  0.12731256    -0.01900
C395        C  0.17947717  0.03640565  0.12078340     0.00700
C396        C  0.20526128  0.06321364  0.07810003    -0.22200
C397        C  0.17713134  0.07549295  0.04967970    -0.22400
C398        C  0.13684821  0.05902877  0.07853437     0.00600
H399        H  0.23623063  0.06486293  0.06208666     0.14400
H400        H  0.18204014  0.08650177  0.00790241     0.14500
N401        N  0.13690187  0.56326195  0.17613962    -0.01900
C402        C  0.10092971  0.57157105  0.18270480     0.00700
C403        C  0.08152485  0.55475849  0.23272266    -0.22200
C404        C  0.11209275  0.54556667  0.26093167    -0.22400
C405        C  0.14752991  0.55387256  0.22620926     0.00600
H406        H  0.05567541  0.56069523  0.25191563     0.14400
H407        H  0.11269380  0.54188350  0.30450721     0.14500
N408        N  0.40010093  0.55661057  0.11246820    -0.01900
C409        C  0.40750063  0.59980323  0.10130473     0.00700
C410        C  0.38384596  0.59717809  0.05306758    -0.22200
C411        C  0.37003256  0.55456346  0.03036656    -0.22400
C412        C  0.38486516  0.53224700  0.06559655     0.00600
H413        H  0.88340476  0.62498248  0.03111182     0.14400
H414        H  0.35950683  0.54528028  0.98831105     0.14500
N415        N  0.38227373  0.53472673  0.16272319    -0.01900
C416        C  0.37163192  0.99056540  0.17368439     0.00700
C417        C  0.39053321  0.99074060  0.22453281    -0.22200
C418        C  0.40538959  0.53345787  0.24752525    -0.22400
C419        C  0.39584733  0.55837169  0.21006112     0.00600
H420        H  0.38340243  0.96101126  0.24836600     0.14400
H421        H  0.41141541  0.54087828  0.29065621     0.14500
N422        N  0.40140503  0.79866696  0.20562429    -0.01900
C423        C  0.44530475  0.82087704  0.22728759     0.00700
C424        C  0.44495642  0.83079538  0.28169234    -0.22200
C425        C  0.40000856  0.80630253  0.29671010    -0.22400
C426        C  0.37550111  0.78069303  0.25148375     0.00600
H427        H  0.47444937  0.84631561  0.30939403     0.14400
H428        H  0.38971011  0.79801302  0.33839423     0.14500
N429        N  0.38830557  0.82411535  0.16865272    -0.01900
C430        C  0.35309270  0.83096629  0.18551823     0.00700
C431        C  0.36846488  0.87481689  0.20491389    -0.22200
C432        C  0.41311631  0.89895781  0.19031072    -0.22400
C433        C  0.42047592  0.86894309  0.15774216     0.00600
H434        H  0.34728613  0.88860503  0.22013549     0.14400
H435        H  0.43230518  0.93621129  0.19035906     0.14500
C436        C  0.14441245  0.84624523  0.13795152     0.03900
C437        C  0.18316417  0.83897892  0.13694558     0.03900
C438        C  0.17596927  0.79334309  0.13901920     0.03900
C439        C  0.13076846  0.75489697  0.13673961     0.03900
C440        C  0.09179705  0.76191046  0.13525557     0.03900
C441        C  0.09918091  0.80762218  0.14029303     0.03900
O442        O  0.38408441  0.62457957  0.42223413    -0.76900
C443        C  0.26851720  0.64245394  0.45072342     0.84200
O444        O  0.25503319  0.50694205  0.31511790    -0.78000
O445        O  0.20909592  0.60681202  0.28402392    -0.79500
O446        O  0.37374995  0.70950024  0.25574830    -0.79300
O447        O  0.41696622  0.68338527  0.36523854    -0.77900
Zn448      Zn  0.31466958  0.59230647  0.39706502     1.55700
O449        O  0.31331056  0.71340503  0.28949923    -0.79300
Cd450      Cd  0.37138672  0.65648533  0.30078177     1.59700
Cd451      Cd  0.28081156  0.56561823  0.27165452     1.59600
O452        O  0.39482140  0.61829342  0.26011082    -0.79300
O453        O  0.30856386  0.61541852  0.32634613    -1.89800
Cd454      Cd  0.27209182  0.64841422  0.32609018     1.59900
O455        O  0.32923711  0.56458247  0.22120970    -0.79200
O456        O  0.25920042  0.65796719  0.40767416    -0.77900
C457        C  0.25310191  0.49268469  0.36335337     0.84600
C458        C  0.41875532  0.66273441  0.40775950     0.84300
O459        O  0.28682444  0.61661404  0.44909393    -0.76900
C460        C  0.35111080  0.73087813  0.26298619     0.85100
O461        O  0.27628588  0.52046695  0.40218771    -0.76900
C462        C  0.37272623  0.58315991  0.22954328     0.85200
C463        C  0.19575141  0.57470823  0.24789925     0.85600
O464        O  0.22214856  0.55937890  0.23204131    -0.79400
N465        N  0.21835089  0.90021759  0.45068003    -0.01900
C466        C  0.25253710  0.89566408  0.42594332     0.00700
C467        C  0.23890500  0.85043560  0.41297544    -0.22200
C468        C  0.19845570  0.82504340  0.43860235    -0.22400
C469        C  0.19006764  0.85599502  0.46762090     0.00600
H470        H  0.26028747  0.83706963  0.39680901     0.14400
H471        H  0.18351162  0.78844524  0.44542176     0.14500
N472        N  0.19848142  0.92295524  0.41960666    -0.01900
C473        C  0.15255370  0.89791839  0.40493674     0.00700
C474        C  0.14659251  0.89347826  0.34920320    -0.22200
C475        C  0.18818798  0.42124476  0.32811112    -0.22400
C476        C  0.21829090  0.94325285  0.37132382     0.00600
H477        H  0.11463934  0.87898968  0.32585651     0.14400
H478        H  0.19317182  0.43155709  0.28615537     0.14500
N479        N  0.20170037  0.65929022  0.54742208    -0.01900
C480        C  0.18611807  0.61364615  0.55803660     0.00700
C481        C  0.19618535  0.60836909  0.61158315    -0.22200
C482        C  0.20413794  0.64774567  0.63780402    -0.22400
C483        C  0.20119122  0.67529816  0.59843885     0.00600
H484        H  0.18540424  0.57597071  0.63179928     0.14400
H485        H  0.20261751  0.65208580  0.68096046     0.14500
N486        N  0.24381789  0.68390157  0.51746012    -0.01900
C487        C  0.27908081  0.72234285  0.54213763     0.00700
C488        C  0.31308764  0.71341939  0.56208432    -0.22200
C489        C  0.30443233  0.67294341  0.53875572    -0.22400
C490        C  0.26644192  0.66003410  0.50504982     0.00600
H491        H  0.34614361  0.73822257  0.57986329     0.14400
H492        H  0.32934412  0.66106226  0.53568330     0.14500
N493        N  0.46186443  0.68560832  0.53488504    -0.01900
C494        C  0.42694082  0.69570736  0.54059923     0.00700
C495        C  0.90823681  0.68120643  0.59137996    -0.22200
C496        C  0.93696655  0.66961426  0.61943107    -0.22400
C497        C  0.97252210  0.67692272  0.58526633     0.00600
H498        H  0.88455367  0.69000799  0.61106586     0.14400
H499        H  0.93785963  0.66778616  0.66304837     0.14500
N500        N  0.46826781  0.66599481  0.48635496    -0.01900
C501        C  0.50577080  0.65993310  0.48040074     0.00700
C502        C  0.53220208  0.68801029  0.43876242    -0.22200
C503        C  0.50437894  0.70083181  0.41057741    -0.22400
C504        C  0.46343333  0.68262603  0.43818922     0.00600
H505        H  0.56227932  0.68831184  0.42174310     0.14400
H506        H  0.50985394  0.71304752  0.36928193     0.14500
C507        C  0.42874093  0.93495895  0.47713235     0.03900
C508        C  0.47420340  0.97148629  0.47931003     0.03900
C509        C  0.01152466  0.96234239  0.48484736     0.03900
C510        C  0.00300200  0.91604098  0.48758653     0.03900
C511        C  0.45655172  0.87964036  0.49216663     0.03900
C512        C  0.41945324  0.88950489  0.48671669     0.03900
N513        N  0.32382677  0.87809467  0.77809831    -0.01900
C514        C  0.35223909  0.86139165  0.76235835     0.00700
C515        C  0.36486585  0.87511041  0.70961265    -0.22200
C516        C  0.33958636  0.89561250  0.69169554    -0.22400
C517        C  0.31022779  0.89241902  0.73296997     0.00600
H518        H  0.38294052  0.86319143  0.68349417     0.14400
H519        H  0.33465732  0.90058457  0.64922530     0.14500
N520        N  0.31291374  0.88244346  0.83278714    -0.01900
C521        C  0.28193119  0.89543351  0.85007829     0.00700
C522        C  0.26416297  0.87241723  0.89842965    -0.22200
C523        C  0.28956255  0.85152588  0.91338522    -0.22400
C524        C  0.32344778  0.86332027  0.87537310     0.00600
H525        H  0.24184625  0.87671526  0.92639727     0.14400
H526        H  0.29054931  0.83998276  0.95415311     0.14500
N527        N  0.07677670  0.90056366  0.78553452    -0.01900
C528        C  0.08812044  0.94591925  0.78529664     0.00700
C529        C  0.07555993  0.95495716  0.73464543    -0.22200
C530        C  0.06767165  0.91868380  0.70084766    -0.22400
C531        C  0.07109108  0.88650874  0.73263490     0.00600
H532        H  0.08456500  0.98886615  0.71988099     0.14400
H533        H  0.06796208  0.91965860  0.65696939     0.14500
N534        N  0.05291944  0.87018701  0.82898148    -0.01900
C535        C  0.55171859  0.82896767  0.83220936     0.00700
C536        C  0.57975614  0.83128358  0.87578719    -0.22200
C537        C  0.58295299  0.86566960  0.90925227    -0.22400
C538        C  0.06198941  0.88606813  0.88102910     0.00600
H539        H  0.58309124  0.80302840  0.89093597     0.14400
H540        H  0.59065682  0.86873177  0.95241296     0.14500
N541        N  0.08483136  0.63242564  0.88091327    -0.01900
C542        C  0.12694851  0.64659417  0.90540511     0.00700
C543        C  0.12210712  0.63331781  0.95902161    -0.22200
C544        C  0.07585381  0.60609539  0.96623396    -0.22400
C545        C  0.05481697  0.60237402  0.91679671     0.00600
H546        H  0.14894289  0.63703745  0.98738093     0.14400
H547        H  0.05958091  0.58482037  0.00052160     0.14500
N548        N  0.07445637  0.66588918  0.85866153    -0.01900
C549        C  0.04308736  0.67318656  0.88566358     0.00700
C550        C  0.06396933  0.71582282  0.91051090    -0.22200
C551        C  0.10764325  0.73840728  0.88984694    -0.22400
C552        C  0.10967402  0.70917432  0.85130529     0.00600
H553        H  0.54732067  0.73090591  0.93377032     0.14400
H554        H  0.13099581  0.77507943  0.89290584     0.14500
C555        C  0.32851931  0.67879306  0.81761171     0.03900
C556        C  0.36660820  0.67053522  0.82122678     0.03900
C557        C  0.35967372  0.62508856  0.82976561     0.03900
C558        C  0.31442543  0.58631479  0.82882102     0.03900
C559        C  0.27592590  0.59452194  0.82451527     0.03900
C560        C  0.28329078  0.64079861  0.82291458     0.03900
O561        O  0.45937444  0.93114077  0.10065596    -0.76900
C562        C  0.09131539  0.03542489  0.04957143     0.84200
O563        O  0.39349751  0.48540444  0.99937061    -0.78000
O564        O  0.02762559  0.52803267  0.88451559    -0.79500
O565        O  0.49675469  0.87572629  0.93444929    -0.79300
O566        O  0.43092040  0.86292444  0.05937550    -0.77900
Zn567      Zn  0.48578395  0.98346696  0.05356083     1.55700
O568        O  0.05014744  0.94567441  0.90880145    -0.79300
Cd569      Cd  0.44783803  0.88924327  0.97749692     1.59700
Cd570      Cd  0.43559556  0.97798272  0.94534100     1.59600
O571        O  0.38462901  0.86694683  0.93271319    -0.79300
O572        O  0.47623180  0.95803661  0.98236244    -1.89800
Cd573      Cd  0.03550663  0.99060886  0.94487387     1.59900
O574        O  0.39540999  0.92978483  0.88798061    -0.79200
O575        O  0.09030837  0.02856870  0.99845451    -0.77900
C576        C  0.40876938  0.50847539  0.04337847     0.84600
C577        C  0.43841835  0.88758267  0.10268768     0.84300
O578        O  0.05405479  0.02032304  0.07615732    -0.76900
C579        C  0.53407216  0.90280943  0.90921483     0.85100
O580        O  0.44674247  0.01512958  0.06609251    -0.76900
C581        C  0.37120429  0.88703610  0.89815545     0.85200
C582        C  0.01696906  0.55759887  0.90087198     0.85600
O583        O  0.97755893  0.54482798  0.92066803    -0.79400
O584        O  0.05516226  0.71380369  0.57646291    -0.76900
C585        C  0.17258928  0.84215865  0.52375904     0.84200
O586        O  0.19919390  0.72891839  0.65825095    -0.78000
O587        O  0.24150725  0.88711087  0.68802575    -0.79500
O588        O  0.07219424  0.81647136  0.72076557    -0.79300
O589        O  0.02671293  0.71594447  0.65678157    -0.77900
Zn590      Zn  0.12528653  0.75277484  0.58969162     1.55700
O591        O  0.12955408  0.87914770  0.68373796    -0.79300
Cd592      Cd  0.08382171  0.76314687  0.70099028     1.59700
Cd593      Cd  0.18163651  0.76964050  0.70250518     1.59600
O594        O  0.08794634  0.73449813  0.77327497    -0.79300
O595        O  0.14135372  0.78648982  0.65880784    -1.89800
Cd596      Cd  0.17377327  0.85623337  0.64885604     1.59900
O597        O  0.15627309  0.73721888  0.77429371    -0.79200
O598        O  0.18402872  0.87100018  0.56352996    -0.77900
C599        C  0.18615990  0.70886635  0.61226586     0.84600
C600        C  0.02081387  0.70226089  0.60740881     0.84300
O601        O  0.15007035  0.79894244  0.53143683    -0.76900
C602        C  0.09201310  0.85920587  0.71090326     0.85100
O603        O  0.15750533  0.71377262  0.58164791    -0.76900
C604        C  0.11841448  0.72730011  0.79636086     0.91200
C605        C  0.26062040  0.86848870  0.71660592     0.85600
O606        O  0.24016059  0.82585178  0.72592901    -0.79400
C607        C  0.47957069  0.64224653  0.81737698    -0.19700
C608        C  0.49322922  0.64746452  0.87217323    -0.07700
C609        C  0.45966464  0.63419291  0.91234800     0.31100
C610        C  0.41348561  0.61957246  0.89752130    -0.19700
C611        C  0.40110442  0.62021838  0.84286133    -0.07700
C612        C  0.43414290  0.62965568  0.80281283     0.31100
F613        F  0.42357514  0.63174026  0.75000820    -0.18300
H614        H  0.50499883  0.65232833  0.78584778     0.19500
H615        H  0.38868584  0.61331245  0.92887797     0.19500
F616        F  0.47211419  0.63832245  0.96565543    -0.18300
C617        C  0.24998896  0.67704652  0.88296681    -0.19700
C618        C  0.24525120  0.65096578  0.83591113    -0.07700
C619        C  0.20399683  0.63337944  0.80489184     0.31100
C620        C  0.16617567  0.63637117  0.82492070    -0.19700
C621        C  0.16952080  0.65778887  0.87542849    -0.07700
C622        C  0.21284055  0.68123067  0.90205072     0.31100
F623        F  0.21839528  0.70548038  0.94866129    -0.18300
H624        H  0.28194066  0.69221922  0.90664905     0.19500
H625        H  0.13326419  0.61837308  0.80335552     0.19500
F626        F  0.19859741  0.60882592  0.75870358    -0.18300
C627        C  0.43944701  0.72282218  0.87091944    -0.19700
C628        C  0.41454267  0.71013251  0.82183555    -0.07700
C629        C  0.43462724  0.73615752  0.77543836     0.31100
C630        C  0.47933258  0.77430860  0.77859349    -0.19700
C631        C  0.50531531  0.78621831  0.82758950    -0.07700
C632        C  0.48364895  0.76028969  0.87430948     0.31100
F633        F  0.50300249  0.77285810  0.92474786    -0.18300
H634        H  0.42342621  0.70493143  0.90776112     0.19500
H635        H  0.49280858  0.79502054  0.74295284     0.19500
F636        F  0.41050489  0.72538969  0.72767340    -0.18300
C637        C  0.17257690  0.98606846  0.76820899    -0.19700
C638        C  0.13639761  0.98107863  0.80182046    -0.07700
C639        C  0.14714255  0.51334771  0.84435369     0.31100
C640        C  0.19303536  0.54725766  0.85492121    -0.19700
C641        C  0.22804718  0.55437693  0.81837770    -0.07700
C642        C  0.21708365  0.52329966  0.77460561     0.31100
F643        F  0.24920554  0.52955618  0.73716746    -0.18300
H644        H  0.16559484  0.96284029  0.73409229     0.19500
H645        H  0.20055638  0.57038407  0.88932435     0.19500
F646        F  0.11371744  0.51553241  0.87256956    -0.18300
C647        C  0.27342740  0.50604867  0.86933970    -0.19700
C648        C  0.30692289  0.53742484  0.83417427    -0.07700
C649        C  0.33021696  0.52037668  0.80183926     0.31100
C650        C  0.32280217  0.47527383  0.80793965    -0.19700
C651        C  0.28728794  0.94302263  0.84052622    -0.07700
C652        C  0.26155188  0.95945729  0.86980775     0.31100
F653        F  0.22421713  0.93091415  0.89888957    -0.18300
H654        H  0.25485244  0.51730575  0.89553596     0.19500
H655        H  0.34563999  0.96649240  0.78675740     0.19500
F656        F  0.35906745  0.54640902  0.76260763    -0.18300
C657        C  0.37321437  0.81058351  0.82045372    -0.19700
C658        C  0.34574608  0.81521172  0.77975983    -0.07700
C659        C  0.31249478  0.77471577  0.75292551     0.31100
C660        C  0.30874379  0.73176543  0.76416532    -0.19700
C661        C  0.33489715  0.72659474  0.80623328    -0.07700
C662        C  0.36535385  0.76674769  0.83648172     0.31100
F663        F  0.38603531  0.76388133  0.88293045    -0.18300
H664        H  0.40038169  0.84077701  0.84055209     0.19500
H665        H  0.28441407  0.70206020  0.74036816     0.19500
F666        F  0.28345664  0.77653150  0.71527728    -0.18300
C667        C  0.47861552  0.53983906  0.52753764    -0.19700
C668        C  0.48233712  0.51961668  0.47914253    -0.07700
C669        C  0.49371824  0.54519445  0.43157150     0.31100
C670        C  0.50169062  0.59052181  0.43268300    -0.19700
C671        C  0.49955067  0.61198717  0.48161765    -0.07700
C672        C  0.48778204  0.58560526  0.52915039     0.31100
F673        F  0.48588663  0.60363542  0.57763318    -0.18300
H674        H  0.46930281  0.52021332  0.56455948     0.19500
H675        H  0.00905803  0.60855865  0.39458844     0.19500
F676        F  0.99643529  0.52605981  0.38387463    -0.18300
C677        C  0.96414159  0.78019046  0.55868226    -0.19700
C678        C  0.43469439  0.74225920  0.52529005    -0.07700
C679        C  0.41136014  0.74947331  0.48167813     0.31100
C680        C  0.41907454  0.79395711  0.47050749    -0.19700
C681        C  0.44747413  0.83168328  0.50472297    -0.07700
C682        C  0.96967157  0.82400907  0.54941598     0.31100
F683        F  0.99689410  0.85902255  0.58410026    -0.18300
H684        H  0.98204705  0.77553833  0.59315688     0.19500
H685        H  0.40317293  0.79893486  0.43460687     0.19500
F686        F  0.38023148  0.71373981  0.45069473    -0.18300
C687        C  0.30317212  0.78189020  0.47101153    -0.19700
C688        C  0.29427184  0.77030186  0.52599241    -0.07700
C689        C  0.31807875  0.80477840  0.56556676     0.31100
C690        C  0.35732828  0.84547692  0.55182137    -0.19700
C691        C  0.37128844  0.85343706  0.49792256    -0.07700
C692        C  0.34122715  0.82407515  0.45690354     0.31100
F693        F  0.35199857  0.83335934  0.40390397    -0.18300
H694        H  0.28486940  0.75623556  0.43950538     0.19500
H695        H  0.37906704  0.86894225  0.58365736     0.19500
F696        F  0.30869985  0.79529068  0.61857546    -0.18300
C697        C  0.06168756  0.52018424  0.55192726    -0.19700
C698        C  0.05723251  0.50150544  0.49988785    -0.07700
C699        C  0.09481932  0.52150915  0.46455870     0.31100
C700        C  0.13700831  0.55902874  0.48268126    -0.19700
C701        C  0.14123147  0.57723749  0.53541160    -0.07700
C702        C  0.10227937  0.55832996  0.56895463     0.31100
F703        F  0.10335960  0.57633375  0.61889592    -0.18300
H704        H  0.03311302  0.50510039  0.57961100     0.19500
H705        H  0.16637641  0.57324516  0.45615307     0.19500
F706        F  0.09101883  0.50417305  0.41362533    -0.18300
C707        C  0.12078576  0.92009067  0.48468798    -0.19700
C708        C  0.11350335  0.89087653  0.43989492    -0.07700
C709        C  0.06784370  0.86247594  0.42092803     0.31100
C710        C  0.03300703  0.87159766  0.43653241    -0.19700
C711        C  0.04079835  0.90440325  0.47730503    -0.07700
C712        C  0.08411151  0.92520317  0.50498538     0.31100
F713        F  0.09135584  0.45098655  0.55082422    -0.18300
H714        H  0.15509761  0.44091540  0.50232871     0.19500
H715        H  0.99998809  0.85363328  0.41526242     0.19500
F716        F  0.05740347  0.82822026  0.38395453    -0.18300
C717        C  0.31855353  0.93990632  0.48814166    -0.19700
C718        C  0.30200407  0.92781736  0.43444205    -0.07700
C719        C  0.33264124  0.93143576  0.39354076     0.31100
C720        C  0.37672239  0.93919970  0.40764004    -0.19700
C721        C  0.39032292  0.94349472  0.46234950    -0.07700
C722        C  0.36264000  0.94732268  0.50229600     0.31100
F723        F  0.37597314  0.95270551  0.55537110    -0.18300
H724        H  0.29532242  0.93714928  0.52015780     0.19500
H725        H  0.39827018  0.93685977  0.37651610     0.19500
F726        F  0.31750753  0.92035941  0.34125054    -0.18300
C727        C  0.28560741  0.78651517  0.12500939    -0.19700
C728        C  0.30354571  0.79911278  0.17815090    -0.07700
C729        C  0.27456993  0.79800829  0.21974766     0.31100
C730        C  0.23173159  0.79355621  0.20668279    -0.19700
C731        C  0.21591820  0.78672482  0.15264282    -0.07700
C732        C  0.24142732  0.77985675  0.11224996     0.31100
F733        F  0.22605332  0.77230238  0.05985645    -0.18300
H734        H  0.30772520  0.78769785  0.09242130     0.19500
H735        H  0.21232432  0.79892858  0.23819006     0.19500
F736        F  0.29095576  0.80922182  0.27163750    -0.18300
C737        C  0.04537469  0.79750110  0.21343963    -0.19700
C738        C  0.06068269  0.81327624  0.16112732    -0.07700
C739        C  0.03782086  0.83125770  0.12977086     0.31100
C740        C  0.99945796  0.83252039  0.15062552    -0.19700
C741        C  0.48468697  0.81792459  0.20362961    -0.07700
C742        C  0.00796884  0.79979503  0.23464348     0.31100
F743        F  0.49336371  0.78232887  0.28474679    -0.18300
H744        H  0.06248064  0.78301934  0.23783849     0.19500
H745        H  0.98183579  0.84505860  0.12511266     0.19500
F746        F  0.05183836  0.84648143  0.07884120    -0.18300
C747        C  0.24383548  0.90503958  0.19189356    -0.19700
C748        C  0.23139519  0.87914672  0.14355809    -0.07700
C749        C  0.26536441  0.89039968  0.10387982     0.31100
C750        C  0.31107843  0.92601381  0.11348826    -0.19700
C751        C  0.32341760  0.95211999  0.16200626    -0.07700
C752        C  0.28869227  0.94138884  0.20077758     0.31100
F753        F  0.29816809  0.96585922  0.24791862    -0.18300
H754        H  0.21856549  0.89655918  0.22320966     0.19500
H755        H  0.33668787  0.93271581  0.08317999     0.19500
F756        F  0.25427763  0.86709638  0.05579865    -0.18300
C757        C  0.96676092  0.68398051  0.08610038    -0.19700
C758        C  0.45255086  0.64314472  0.11618617    -0.07700
C759        C  0.48523946  0.64346676  0.15420765     0.31100
C760        C  0.02721690  0.68368282  0.16489443    -0.19700
C761        C  0.04287082  0.72190884  0.13087700    -0.07700
C762        C  0.01177742  0.72126586  0.09100255     0.31100
F763        F  0.02544048  0.75589002  0.05488926    -0.18300
H764        H  0.94460620  0.68667583  0.05558213     0.19500
H765        H  0.04894353  0.68325049  0.19767694     0.19500
F766        F  0.48006363  0.60458158  0.17733221    -0.18300
C767        C  0.13559180  0.69774762  0.19691292    -0.19700
C768        C  0.12474500  0.70807738  0.14554808    -0.07700
C769        C  0.10449610  0.67288222  0.10605923     0.31100
C770        C  0.09527208  0.62806856  0.11835650    -0.19700
C771        C  0.10785110  0.61816211  0.16917879    -0.07700
C772        C  0.12859123  0.65400665  0.20824369     0.31100
F773        F  0.14151950  0.64679716  0.25816527    -0.18300
H774        H  0.14834781  0.72338970  0.22910956     0.19500
H775        H  0.07755121  0.60141851  0.08871743     0.19500
F776        F  0.09169550  0.68138461  0.05675966    -0.18300
C777        C  0.15099557  0.96188439  0.17266909    -0.19700
C778        C  0.17290626  0.98830763  0.12683995    -0.07700
C779        C  0.18329925  0.96592328  0.08429561     0.31100
C780        C  0.17305119  0.92007781  0.08862053    -0.19700
C781        C  0.15208541  0.89447529  0.13469880    -0.07700
C782        C  0.14127576  0.91596175  0.17698279     0.31100
F783        F  0.12174163  0.89290887  0.22283590    -0.18300
H784        H  0.14099605  0.97626362  0.20562475     0.19500
H785        H  0.18141034  0.90419983  0.05530691     0.19500
F786        F  0.20126238  0.98679707  0.03673000    -0.18300
N787        N  0.64282306  0.04368498  0.12724872    -0.01900
C788        C  0.67952674  0.53647314  0.12087421     0.00700
C789        C  0.70523543  0.56329601  0.07815615    -0.22200
C790        C  0.67699783  0.57541570  0.04971405    -0.22400
C791        C  0.63671385  0.55884939  0.07857664     0.00600
H792        H  0.73633389  0.56519514  0.06222025     0.14400
H793        H  0.68188368  0.58643885  0.00794282     0.14500
N794        N  0.63694617  0.06327984  0.17611358    -0.01900
C795        C  0.60095766  0.07155174  0.18272252     0.00700
C796        C  0.58156849  0.05470463  0.23273652    -0.22200
C797        C  0.61215511  0.04551497  0.26090282    -0.22400
C798        C  0.64759193  0.05386989  0.22615965     0.00600
H799        H  0.55572120  0.06062381  0.25196504     0.14400
H800        H  0.61277595  0.04182025  0.30447424     0.14500
N801        N  0.90007410  0.05674143  0.11269910    -0.01900
C802        C  0.90740543  0.09992225  0.10157408     0.00700
C803        C  0.88381521  0.09729568  0.05328044    -0.22200
C804        C  0.87013795  0.05472754  0.03052443    -0.22400
C805        C  0.88494389  0.03241533  0.06579659     0.00600
H806        H  0.38362846  0.12509147  0.03122256     0.14400
H807        H  0.85970672  0.04548171  0.98843939     0.14500
N808        N  0.88223795  0.03478057  0.16291545    -0.01900
C809        C  0.87173863  0.49063063  0.17353165     0.00700
C810        C  0.89081257  0.49094675  0.22431559    -0.22200
C811        C  0.90514101  0.03331282  0.24776477    -0.22400
C812        C  0.89575929  0.05834370  0.21030378     0.00600
H813        H  0.88382642  0.46129197  0.24821154     0.14400
H814        H  0.91107589  0.04065313  0.29091760     0.14500
N815        N  0.90149037  0.29887055  0.20568699    -0.01900
C816        C  0.94541881  0.32119031  0.22725337     0.00700
C817        C  0.94512671  0.33104692  0.28169005    -0.22200
C818        C  0.90021834  0.30642142  0.29680979    -0.22400
C819        C  0.87566652  0.28083857  0.25159174     0.00600
H820        H  0.97466203  0.34655169  0.30933445     0.14400
H821        H  0.88999703  0.29807190  0.33850603     0.14500
N822        N  0.88824485  0.32424426  0.16878092    -0.01900
C823        C  0.85311422  0.33112695  0.18587996     0.00700
C824        C  0.86855299  0.37500822  0.20519723    -0.22200
C825        C  0.91312092  0.39913269  0.19026853    -0.22400
C826        C  0.92035718  0.36904632  0.15767916     0.00600
H827        H  0.84742410  0.38881190  0.22053553     0.14400
H828        H  0.93230244  0.43638359  0.19018456     0.14500
C829        C  0.64449239  0.34631260  0.13835239     0.03900
C830        C  0.68319446  0.33897107  0.13737919     0.03900
C831        C  0.67592783  0.29331991  0.13951158     0.03900
C832        C  0.63071020  0.25489888  0.13718991     0.03900
C833        C  0.59176258  0.26195589  0.13567813     0.03900
C834        C  0.59922208  0.30770697  0.14070130     0.03900
O835        O  0.88411555  0.12465611  0.42217579    -0.76900
C836        C  0.76851117  0.14240414  0.45069709     0.84200
O837        O  0.75499000  0.00691470  0.31514753    -0.78000
O838        O  0.70916063  0.10691153  0.28391528    -0.79500
O839        O  0.87375354  0.20955190  0.25563703    -0.79300
O840        O  0.91694368  0.18356915  0.36531127    -0.77900
Zn841      Zn  0.81468052  0.09228879  0.39703307     1.55700
O842        O  0.81343627  0.21355867  0.28958630    -0.79300
Cd843      Cd  0.87138929  0.15658933  0.30082396     1.59700
Cd844      Cd  0.78080013  0.06564268  0.27172731     1.59600
O845        O  0.89481286  0.11832144  0.26031944    -0.79300
O846        O  0.80856231  0.11547245  0.32636198    -1.89800
Cd847      Cd  0.77213761  0.14850671  0.32606221     1.59900
O848        O  0.82924251  0.06471501  0.22127117    -0.79200
O849        O  0.75922375  0.15796220  0.40766344    -0.77900
C850        C  0.75309728  0.99261227  0.36335524     0.84600
C851        C  0.91875494  0.16286969  0.40777941     0.84300
O852        O  0.78681197  0.11655847  0.44905517    -0.76900
C853        C  0.85120261  0.23100232  0.26300491     0.85100
O854        O  0.77631220  0.02038963  0.40218565    -0.76900
C855        C  0.87270937  0.08321145  0.22971889     0.85200
C856        C  0.69581282  0.07476260  0.24784230     0.85600
O857        O  0.72219495  0.05940158  0.23205063    -0.79400
N858        N  0.71824424  0.40027746  0.45062440    -0.01900
C859        C  0.75238743  0.39566300  0.42586751     0.00700
C860        C  0.73866361  0.35042870  0.41282607    -0.22200
C861        C  0.69819024  0.32507734  0.43842729    -0.22400
C862        C  0.68990602  0.35605929  0.46753221     0.00600
H863        H  0.75998719  0.33701362  0.39660842     0.14400
H864        H  0.68316807  0.28846346  0.44518481     0.14500
N865        N  0.69842117  0.42305623  0.41955006    -0.01900
C866        C  0.65248353  0.39809982  0.40491406     0.00700
C867        C  0.64647018  0.39371992  0.34918619    -0.22200
C868        C  0.68837692  0.92105920  0.32797143    -0.22400
C869        C  0.71822444  0.44331846  0.37125414     0.00600
H870        H  0.61449699  0.37929588  0.32588489     0.14400
H871        H  0.69340925  0.93143478  0.28604303     0.14500
N872        N  0.70173843  0.15938495  0.54740529    -0.01900
C873        C  0.68615283  0.11377060  0.55817174     0.00700
C874        C  0.69632129  0.10860910  0.61171602    -0.22200
C875        C  0.70433841  0.14804942  0.63782252    -0.22400
C876        C  0.70130763  0.17550533  0.59838441     0.00600
H877        H  0.68559542  0.07626039  0.63202667     0.14400
H878        H  0.70291320  0.15249224  0.68097681     0.14500
N879        N  0.74383751  0.18387990  0.51738766    -0.01900
C880        C  0.77915384  0.22230428  0.54200044     0.00700
C881        C  0.81310795  0.21332726  0.56199813    -0.22200
C882        C  0.80434324  0.17277557  0.53878395    -0.22400
C883        C  0.76638497  0.15992641  0.50503457     0.00600
H884        H  0.84617364  0.23809850  0.57978246     0.14400
H885        H  0.82918779  0.16080306  0.53578258     0.14500
N886        N  0.96176119  0.18562646  0.53495604    -0.01900
C887        C  0.92673960  0.19557667  0.54073782     0.00700
C888        C  0.40811634  0.18115324  0.59148277    -0.22200
C889        C  0.43692172  0.16964481  0.61951183    -0.22400
C890        C  0.47246364  0.17698166  0.58531236     0.00600
H891        H  0.38440436  0.18990275  0.61119060     0.14400
H892        H  0.43785884  0.16785074  0.66312840     0.14500
N893        N  0.96820426  0.16608024  0.48639848    -0.01900
C894        C  0.00565595  0.15993087  0.48048110     0.00700
C895        C  0.03210279  0.18792783  0.43880010    -0.22200
C896        C  0.00436007  0.20086380  0.41062888    -0.22400
C897        C  0.96341945  0.18275939  0.43824408     0.00600
H898        H  0.06210507  0.18809232  0.42175137     0.14400
H899        H  0.00985010  0.21305376  0.36932224     0.14500
C900        C  0.92866574  0.43487811  0.47671379     0.03900
C901        C  0.97414955  0.47137694  0.47891955     0.03900
C902        C  0.51150588  0.46226332  0.48474161     0.03900
C903        C  0.50289675  0.41593638  0.48755180     0.03900
C904        C  0.95637771  0.37952393  0.49215337     0.03900
C905        C  0.91932717  0.38943186  0.48646116     0.03900
N906        N  0.82378590  0.37819420  0.77803742    -0.01900
C907        C  0.85212282  0.36141207  0.76225699     0.00700
C908        C  0.86467378  0.37504602  0.70947209    -0.22200
C909        C  0.83941134  0.39556917  0.69157410    -0.22400
C910        C  0.81013410  0.39246526  0.73290484     0.00600
H911        H  0.88267097  0.36305050  0.68333433     0.14400
H912        H  0.83441276  0.40047367  0.64910130     0.14500
N913        N  0.81267851  0.38231821  0.83270670    -0.01900
C914        C  0.78176600  0.39539104  0.85001836     0.00700
C915        C  0.76408902  0.37251328  0.89846471    -0.22200
C916        C  0.78946958  0.35160326  0.91342311    -0.22400
C917        C  0.82327364  0.36327389  0.87532510     0.00600
H918        H  0.74191753  0.37699179  0.92649274     0.14400
H919        H  0.79054066  0.34017347  0.95422942     0.14500
N920        N  0.57672159  0.40058272  0.78537602    -0.01900
C921        C  0.58812158  0.44595599  0.78525850     0.00700
C922        C  0.57562961  0.45509737  0.73461889    -0.22200
C923        C  0.56775087  0.41887563  0.70073047    -0.22400
C924        C  0.57108723  0.38662157  0.73244890     0.00600
H925        H  0.58468677  0.48904161  0.71993329     0.14400
H926        H  0.56809321  0.41992608  0.65685684     0.14500
N927        N  0.55281988  0.37010896  0.82872706    -0.01900
C928        C  0.05170817  0.32892903  0.83204807     0.00700
C929        C  0.07980506  0.33126550  0.87556522    -0.22200
C930        C  0.08292644  0.36557692  0.90911312    -0.22400
C931        C  0.56187153  0.38585904  0.88082292     0.00600
H932        H  0.08322617  0.30303756  0.89062207     0.14400
H933        H  0.09065272  0.36861222  0.95226655     0.14500
N934        N  0.58468165  0.13237870  0.88094321    -0.01900
C935        C  0.62679009  0.14648368  0.90541736     0.00700
C936        C  0.62195462  0.13327833  0.95906005    -0.22200
C937        C  0.57569389  0.10618093  0.96633691    -0.22400
C938        C  0.55464410  0.10243035  0.91689567     0.00600
H939        H  0.64878377  0.13697162  0.98741452     0.14400
H940        H  0.55942192  0.08495824  0.00067056     0.14500
N941        N  0.57440643  0.16587664  0.85857894    -0.01900
C942        C  0.54308923  0.17328504  0.88552984     0.00700
C943        C  0.56406176  0.21589756  0.91043684    -0.22200
C944        C  0.60775630  0.23838488  0.88981469    -0.22400
C945        C  0.60968773  0.20912968  0.85122084     0.00600
H946        H  0.04760516  0.23119189  0.93383345     0.14400
H947        H  0.63118474  0.27504031  0.89291814     0.14500
C948        C  0.82845248  0.17888832  0.81773781     0.03900
C949        C  0.86655752  0.17065875  0.82137180     0.03900
C950        C  0.85966433  0.12522781  0.82984896     0.03900
C951        C  0.81443515  0.08644409  0.82882935     0.03900
C952        C  0.77590476  0.09460270  0.82453308     0.03900
C953        C  0.78323271  0.14086985  0.82298538     0.03900
O954        O  0.95915932  0.43112300  0.10043028    -0.76900
C955        C  0.59118194  0.53517855  0.04960559     0.84200
O956        O  0.89354946  0.98549538  0.99968942    -0.78000
O957        O  0.52743343  0.02809017  0.88460795    -0.79500
O958        O  0.99658222  0.37554830  0.93432791    -0.79300
O959        O  0.93074197  0.36285836  0.05930241    -0.77900
Zn960      Zn  0.98566330  0.48341379  0.05334686     1.55700
O961        O  0.55007746  0.44543234  0.90879138    -0.79300
Cd962      Cd  0.94768629  0.38913603  0.97737430     1.59700
Cd963      Cd  0.93558580  0.47796910  0.94500903     1.59600
O964        O  0.88448446  0.36690849  0.93259811    -0.79300
O965        O  0.97612039  0.45794693  0.98216729    -1.89800
Cd966      Cd  0.53546413  0.49037865  0.94483167     1.59900
O967        O  0.89532008  0.42970548  0.88771595    -0.79200
O968        O  0.59020502  0.52826752  0.99850478    -0.77900
C969        C  0.90883988  0.00860370  0.04366595     0.84600
C970        C  0.93821654  0.38757525  0.10255982     0.84300
O971        O  0.55390072  0.52013720  0.07613563    -0.76900
C972        C  0.03394809  0.40263783  0.90917180     0.85100
O973        O  0.94664965  0.51508074  0.06580929    -0.76900
C974        C  0.87106916  0.38697925  0.89800037     0.85200
C975        C  0.51678814  0.05764146  0.90105629     0.85600
O976        O  0.47743161  0.04484977  0.92101185    -0.79400
O977        O  0.55511135  0.21390537  0.57644724    -0.76900
C978        C  0.67250081  0.34222365  0.52369353     0.84200
O979        O  0.69932930  0.22918416  0.65809315    -0.78000
O980        O  0.74143883  0.38714230  0.68791972    -0.79500
O981        O  0.57218266  0.31657967  0.72062303    -0.79300
O982        O  0.52669477  0.21602119  0.65679810    -0.77900
Zn983      Zn  0.62524578  0.25284376  0.58964634     1.55700
O984        O  0.62952712  0.37923867  0.68355860    -0.79300
Cd985      Cd  0.58381619  0.26324044  0.70097659     1.59700
Cd986      Cd  0.68159975  0.26971431  0.70244850     1.59600
O987        O  0.58799486  0.23464530  0.77330598    -0.79300
O988        O  0.64131442  0.28655590  0.65875390    -1.89800
Cd989      Cd  0.67372217  0.35628891  0.64875955     1.59900
O990        O  0.65618403  0.23707046  0.77411078    -0.79200
O991        O  0.68395885  0.37107067  0.56345604    -0.77900
C992        C  0.68623787  0.20905426  0.61215851     0.84600
C993        C  0.52077410  0.20235448  0.60741683     0.84300
O994        O  0.65000503  0.29900988  0.53138999    -0.76900
C995        C  0.59198543  0.35930487  0.71071219     0.85100
O996        O  0.65748166  0.21384522  0.58159267    -0.76900
C997        C  0.61839992  0.22728644  0.79628202     0.91200
C998        C  0.76051305  0.36855555  0.71663118     0.85600
O999        O  0.74002767  0.32594018  0.72608803    -0.79400
C1000       C  0.97958020  0.14241722  0.81744535    -0.19700
C1001       C  0.99329465  0.14776117  0.87223150    -0.07700
C1002       C  0.95976606  0.13460145  0.91243742     0.31100
C1003       C  0.91356206  0.11989722  0.89763712    -0.19700
C1004       C  0.90111329  0.12038293  0.84296456    -0.07700
C1005       C  0.93412701  0.12975996  0.80290143     0.31100
F1006       F  0.92351814  0.13174347  0.75008873    -0.18300
H1007       H  0.00498054  0.15243223  0.78589118     0.19500
H1008       H  0.88879045  0.11370375  0.92900958     0.19500
F1009       F  0.97226740  0.13891168  0.96574048    -0.18300
C1010       C  0.74985558  0.17704934  0.88303269    -0.19700
C1011       C  0.74516547  0.15100284  0.83596077    -0.07700
C1012       C  0.70393796  0.13343316  0.80489013     0.31100
C1013       C  0.66607768  0.13636249  0.82491083    -0.19700
C1014       C  0.66937500  0.15772639  0.87544490    -0.07700
C1015       C  0.71267828  0.18119296  0.90209141     0.31100
F1016       F  0.71818783  0.20543273  0.94869840    -0.18300
H1017       H  0.78179352  0.19223044  0.90674137     0.19500
H1018       H  0.63318113  0.11836577  0.80331441     0.19500
F1019       F  0.69860910  0.10895952  0.75865162    -0.18300
C1020       C  0.93939947  0.22299074  0.87101576    -0.19700
C1021       C  0.91447346  0.21024995  0.82194855    -0.07700
C1022       C  0.93455840  0.23614875  0.77548148     0.31100
C1023       C  0.97929533  0.27424078  0.77854461    -0.19700
C1024       C  0.00530758  0.28619163  0.82751852    -0.07700
C1025       C  0.98365162  0.26037684  0.87430807     0.31100
F1026       F  0.00308551  0.27297446  0.92470645    -0.18300
H1027       H  0.92338031  0.20518152  0.90789920     0.19500
H1028       H  0.99277394  0.29487584  0.74284960     0.19500
F1029       F  0.91041029  0.22530279  0.72773137    -0.18300
C1030       C  0.67259080  0.48609938  0.76818212    -0.19700
C1031       C  0.63641634  0.48106285  0.80183778    -0.07700
C1032       C  0.64710129  0.01344601  0.84424952     0.31100
C1033       C  0.69299489  0.04732615  0.85488019    -0.19700
C1034       C  0.72804069  0.05441927  0.81840137    -0.07700
C1035       C  0.71710005  0.02332151  0.77465077     0.31100
F1036       F  0.74922944  0.02957514  0.73722429    -0.18300
H1037       H  0.66560408  0.46290250  0.73403115     0.19500
H1038       H  0.70048548  0.07047066  0.88925668     0.19500
F1039       F  0.61364654  0.01572229  0.87230036    -0.18300
C1040       C  0.77371173  0.00632881  0.86962727    -0.19700
C1041       C  0.80698522  0.03759284  0.83419814    -0.07700
C1042       C  0.83013454  0.02049521  0.80169842     0.31100
C1043       C  0.82273663  0.97539577  0.80780378    -0.19700
C1044       C  0.78714525  0.44296409  0.84038536    -0.07700
C1045       C  0.76130006  0.45934679  0.86950704     0.31100
F1046       F  0.72375223  0.43070754  0.89823017    -0.18300
H1047       H  0.75525605  0.01766632  0.89591724     0.19500
H1048       H  0.84569990  0.46649147  0.78692350     0.19500
F1049       F  0.85883223  0.04648917  0.76232490    -0.18300
C1050       C  0.87314139  0.31067167  0.82040445    -0.19700
C1051       C  0.84563108  0.31525376  0.77973033    -0.07700
C1052       C  0.81236227  0.27473459  0.75295519     0.31100
C1053       C  0.80862299  0.23179961  0.76425440    -0.19700
C1054       C  0.83480102  0.22667271  0.80632886    -0.07700
C1055       C  0.86528021  0.26685682  0.83651312     0.31100
F1056       F  0.88599173  0.26404891  0.88296724    -0.18300
H1057       H  0.90035125  0.34088765  0.84041766     0.19500
H1058       H  0.78429564  0.20207503  0.74048443     0.19500
F1059       F  0.78332795  0.27652192  0.71527310    -0.18300
C1060       C  0.97899181  0.04004072  0.52792681    -0.19700
C1061       C  0.98224653  0.01962519  0.47943822    -0.07700
C1062       C  0.99305312  0.04497974  0.43171319     0.31100
C1063       C  0.00096142  0.09028356  0.43275591    -0.19700
C1064       C  0.99934750  0.11195909  0.48175764    -0.07700
C1065       C  0.98811956  0.08580462  0.52945466     0.31100
F1066       F  0.98674576  0.10406862  0.57799368    -0.18300
H1067       H  0.97006978  0.02057263  0.56506501     0.19500
H1068       H  0.50747475  0.10805879  0.39453070     0.19500
F1069       F  0.49482804  0.02552856  0.38391499    -0.18300
C1070       C  0.46385997  0.28012728  0.55872863    -0.19700
C1071       C  0.93434760  0.24210088  0.52550443    -0.07700
C1072       C  0.91106773  0.24931137  0.48182332     0.31100
C1073       C  0.91880872  0.29380111  0.47060294    -0.19700
C1074       C  0.94718649  0.33154041  0.50482203    -0.07700
C1075       C  0.46939570  0.32393769  0.54940620     0.31100
F1076       F  0.49660035  0.35896488  0.58408270    -0.18300
H1077       H  0.48176613  0.27550186  0.59322164     0.19500
H1078       H  0.90295178  0.29877690  0.43465844     0.19500
F1079       F  0.87996501  0.21357324  0.45082298    -0.18300
C1080       C  0.80305292  0.28186005  0.47092084    -0.19700
C1081       C  0.79430043  0.27025615  0.52591596    -0.07700
C1082       C  0.81815817  0.30471658  0.56548511     0.31100
C1083       C  0.85732610  0.34544854  0.55166899    -0.19700
C1084       C  0.87116151  0.35343223  0.49772798    -0.07700
C1085       C  0.84104413  0.32406530  0.45675171     0.31100
F1086       F  0.85172893  0.33334240  0.40372910    -0.18300
H1087       H  0.78470460  0.25620246  0.43943146     0.19500
H1088       H  0.87913093  0.36890534  0.58347429     0.19500
F1089       F  0.80892960  0.29518775  0.61851843    -0.18300
C1090       C  0.56185544  0.02003988  0.55216797    -0.19700
C1091       C  0.55732053  0.00160910  0.49998071    -0.07700
C1092       C  0.59481073  0.02183404  0.46454115     0.31100
C1093       C  0.63699460  0.05934250  0.48269714    -0.19700
C1094       C  0.64129136  0.07731020  0.53557588    -0.07700
C1095       C  0.60241608  0.05818941  0.56923039     0.31100
F1096       F  0.60351654  0.07602701  0.61928167    -0.18300
H1097       H  0.53335428  0.00477365  0.57993412     0.19500
H1098       H  0.66629289  0.07375216  0.45606651     0.19500
F1099       F  0.59091216  0.00475368  0.41345041    -0.18300
C1100       C  0.62068380  0.42005003  0.48482737    -0.19700
C1101       C  0.61344884  0.39089667  0.43998248    -0.07700
C1102       C  0.56780127  0.36241249  0.42104098     0.31100
C1103       C  0.53291355  0.37144081  0.43666747    -0.19700
C1104       C  0.54066291  0.40423419  0.47743396    -0.07700
C1105       C  0.58395347  0.42504876  0.50516368     0.31100
F1106       F  0.59155898  0.95097436  0.55045712    -0.18300
H1107       H  0.65511388  0.94060074  0.50202581     0.19500
H1108       H  0.49990822  0.35345598  0.41537150     0.19500
F1109       F  0.55743630  0.32822267  0.38399598    -0.18300
C1110       C  0.81848479  0.43980464  0.48799387    -0.19700
C1111       C  0.80187593  0.42776621  0.43431313    -0.07700
C1112       C  0.83246397  0.43140791  0.39333619     0.31100
C1113       C  0.87657948  0.43919448  0.40732600    -0.19700
C1114       C  0.89024924  0.44345427  0.46201078    -0.07700
C1115       C  0.86258467  0.44720961  0.50204303     0.31100
F1116       F  0.87593616  0.45247371  0.55510480    -0.18300
H1117       H  0.79528736  0.43700885  0.52007022     0.19500
H1118       H  0.89809470  0.43688816  0.37613484     0.19500
F1119       F  0.81725889  0.42035776  0.34106617    -0.18300
C1120       C  0.78558406  0.28660692  0.12549260    -0.19700
C1121       C  0.80356350  0.29930958  0.17860068    -0.07700
C1122       C  0.77462102  0.29823074  0.22022220     0.31100
C1123       C  0.73172016  0.29363355  0.20719132    -0.19700
C1124       C  0.71585317  0.28668646  0.15316512    -0.07700
C1125       C  0.74136526  0.27983829  0.11276882     0.31100
F1126       F  0.72595179  0.27221550  0.06039121    -0.18300
H1127       H  0.80768823  0.28778616  0.09289002     0.19500
H1128       H  0.71231011  0.29900757  0.23869487     0.19500
F1129       F  0.79105950  0.30955343  0.27208215    -0.18300
C1130       C  0.54494954  0.29714240  0.21345448    -0.19700
C1131       C  0.56071499  0.31339952  0.16141038    -0.07700
C1132       C  0.53830295  0.33192804  0.13017726     0.31100
C1133       C  0.50001974  0.33339046  0.15094058    -0.19700
C1134       C  0.98474750  0.31816248  0.20358761    -0.07700
C1135       C  0.50747248  0.29940030  0.23446373     0.31100
F1136       F  0.99284968  0.28187295  0.28438675    -0.18300
H1137       H  0.56170873  0.28225032  0.23775936     0.19500
H1138       H  0.48291413  0.34661215  0.12562903     0.19500
F1139       F  0.55269214  0.34751128  0.07945200    -0.18300
C1140       C  0.74403690  0.40499091  0.19224106    -0.19700
C1141       C  0.73147088  0.37909364  0.14390558    -0.07700
C1142       C  0.76533022  0.39035259  0.10408053     0.31100
C1143       C  0.81105930  0.42599488  0.11353150    -0.19700
C1144       C  0.82352465  0.45210475  0.16205296    -0.07700
C1145       C  0.78890902  0.44135685  0.20097876     0.31100
F1146       F  0.79849457  0.46586674  0.24810136    -0.18300
H1147       H  0.71884596  0.39652703  0.22365271     0.19500
H1148       H  0.83657749  0.43273624  0.08308591     0.19500
F1149       F  0.75410881  0.36705348  0.05599093    -0.18300
C1150       C  0.46653442  0.18416408  0.08686832    -0.19700
C1151       C  0.95242819  0.14329456  0.11648095    -0.07700
C1152       C  0.98513384  0.14362379  0.15447667     0.31100
C1153       C  0.52717013  0.18366512  0.16525457    -0.19700
C1154       C  0.54278671  0.22196715  0.13135259    -0.07700
C1155       C  0.51156667  0.22144276  0.09172060     0.31100
F1156       F  0.52510532  0.25618164  0.05578622    -0.18300
H1157       H  0.44427442  0.18695779  0.05657761     0.19500
H1158       H  0.54893662  0.18315755  0.19794043     0.19500
F1159       F  0.97993979  0.10475517  0.17765792    -0.18300
C1160       C  0.63567034  0.19770289  0.19715306    -0.19700
C1161       C  0.62466529  0.20805766  0.14588809    -0.07700
C1162       C  0.60429981  0.17287743  0.10638695     0.31100
C1163       C  0.59510165  0.12805640  0.11858765    -0.19700
C1164       C  0.60786998  0.11814512  0.16928845    -0.07700
C1165       C  0.62876293  0.15397710  0.20834407     0.31100
F1166       F  0.64193016  0.14676358  0.25812438    -0.18300
H1167       H  0.64851240  0.22332014  0.22937659     0.19500
H1168       H  0.57726673  0.10140293  0.08896558     0.19500
F1169       F  0.59135225  0.18139896  0.05718795    -0.18300
C1170       C  0.65086812  0.46193175  0.17276192    -0.19700
C1171       C  0.67318701  0.48847204  0.12715218    -0.07700
C1172       C  0.68414046  0.46623974  0.08495912     0.31100
C1173       C  0.67375211  0.42035195  0.08926781    -0.19700
C1174       C  0.65229758  0.39460404  0.13509504    -0.07700
C1175       C  0.64118649  0.41602797  0.17716735     0.31100
F1176       F  0.62136007  0.39292814  0.22289590    -0.18300
H1177       H  0.64048775  0.47619121  0.20547142     0.19500
H1178       H  0.68243305  0.40456666  0.05614546     0.19500
F1179       F  0.70281741  0.48729321  0.03771395    -0.18300
N1180       N  0.64277949  0.54361001  0.12731393    -0.01900
C1181       C  0.67946518  0.03638801  0.12078649     0.00700
C1182       C  0.70524589  0.06319242  0.07809851    -0.22200
C1183       C  0.67711910  0.07547984  0.04968540    -0.22400
C1184       C  0.63683699  0.05901612  0.07854171     0.00600
H1185       H  0.73621843  0.06484912  0.06208591     0.14400
H1186       H  0.68202826  0.08649376  0.00790990     0.14500
N1187       N  0.63688841  0.56323974  0.17614283    -0.01900
C1188       C  0.60091447  0.57154433  0.18270184     0.00700
C1189       C  0.58151339  0.55474177  0.23272409    -0.22200
C1190       C  0.61208611  0.54556077  0.26093930    -0.22400
C1191       C  0.64752370  0.55386722  0.22621755     0.00600
H1192       H  0.55566584  0.56068313  0.25191417     0.14400
H1193       H  0.61269115  0.54188905  0.30451676     0.14500
N1194       N  0.90009499  0.55666071  0.11246186    -0.01900
C1195       C  0.90747076  0.59984596  0.10130025     0.00700
C1196       C  0.88376499  0.59719791  0.05309754    -0.22200
C1197       C  0.86998097  0.55459386  0.03038172    -0.22400
C1198       C  0.88485906  0.53230112  0.06558983     0.00600
H1199       H  0.38353653  0.62497507  0.03105449     0.14400
H1200       H  0.85943495  0.54530648  0.98833166     0.14500
N1201       N  0.88224315  0.53476330  0.16270467    -0.01900
C1202       C  0.87162439  0.99060222  0.17365403     0.00700
C1203       C  0.89054272  0.99078171  0.22449277    -0.22200
C1204       C  0.90538471  0.53349948  0.24749959    -0.22400
C1205       C  0.89581573  0.55840103  0.21004661     0.00600
H1206       H  0.88343097  0.96105413  0.24831867     0.14400
H1207       H  0.91141978  0.54091943  0.29062979     0.14500
N1208       N  0.90140793  0.79867155  0.20563092    -0.01900
C1209       C  0.94530751  0.82084949  0.22729952     0.00700
C1210       C  0.94496058  0.83077214  0.28170448    -0.22200
C1211       C  0.90000816  0.80630887  0.29671530    -0.22400
C1212       C  0.87549465  0.78070656  0.25148757     0.00600
H1213       H  0.97445013  0.84629595  0.30941070     0.14400
H1214       H  0.88970195  0.79802922  0.33839905     0.14500
N1215       N  0.88833645  0.82414243  0.16865848    -0.01900
C1216       C  0.85312345  0.83100219  0.18550246     0.00700
C1217       C  0.86850105  0.87485249  0.20490222    -0.22200
C1218       C  0.91316321  0.89898324  0.19033598    -0.22400
C1219       C  0.92052207  0.86897006  0.15776288     0.00600
H1220       H  0.84732596  0.88864596  0.22012027     0.14400
H1221       H  0.93236258  0.93623678  0.19040097     0.14500
C1222       C  0.64441343  0.84622790  0.13803855     0.03900
C1223       C  0.68316559  0.83896264  0.13699921     0.03900
C1224       C  0.67597368  0.79332782  0.13906862     0.03900
C1225       C  0.63077227  0.75487729  0.13680956     0.03900
C1226       C  0.59179521  0.76188420  0.13538557     0.03900
C1227       C  0.59918446  0.80759980  0.14042932     0.03900
O1228       O  0.88406050  0.62456774  0.42223573    -0.76900
C1229       C  0.76849815  0.64244153  0.45074577     0.84200
O1230       O  0.75502870  0.50694722  0.31509192    -0.78000
O1231       O  0.70908065  0.60681623  0.28404000    -0.79500
O1232       O  0.87373054  0.70950835  0.25576113    -0.79300
O1233       O  0.91694814  0.68338532  0.36525537    -0.77900
Zn1234     Zn  0.81464011  0.59229259  0.39706858     1.55700
O1235       O  0.81329769  0.71342313  0.28951496    -0.79300
Cd1236     Cd  0.87136613  0.65649728  0.30080298     1.59700
Cd1237     Cd  0.78080197  0.56564117  0.27165611     1.59600
O1238       O  0.89479868  0.61830661  0.26013533    -0.79300
O1239       O  0.80854346  0.61542862  0.32636220    -1.89800
Cd1240     Cd  0.77207602  0.64842885  0.32611043     1.59900
O1241       O  0.82922148  0.56463735  0.22118159    -0.79200
O1242       O  0.75919255  0.65797461  0.40770451    -0.77900
C1243       C  0.75308857  0.49266985  0.36331931     0.84600
C1244       C  0.91873584  0.66272226  0.40776589     0.84300
O1245       O  0.78679088  0.61658936  0.44910269    -0.76900
C1246       C  0.85109625  0.73089121  0.26299719     0.85100
O1247       O  0.77625587  0.52044284  0.40216902    -0.76900
C1248       C  0.87270497  0.58319377  0.22953813     0.85200
C1249       C  0.69574524  0.57471928  0.24790613     0.85600
O1250       O  0.72215076  0.55940503  0.23203872    -0.79400
N1251       N  0.71826804  0.90009113  0.45057208    -0.01900
C1252       C  0.75239835  0.89546227  0.42580243     0.00700
C1253       C  0.73867627  0.85021563  0.41282247    -0.22200
C1254       C  0.69823018  0.82488289  0.43848277    -0.22400
C1255       C  0.68993814  0.85588574  0.46753363     0.00600
H1256       H  0.75999995  0.83678918  0.39663314     0.14400
H1257       H  0.68322983  0.78827896  0.44530069     0.14500
N1258       N  0.69844185  0.92288085  0.41951960    -0.01900
C1259       C  0.65252246  0.89786356  0.40480388     0.00700
C1260       C  0.64660185  0.89344224  0.34906807    -0.22200
C1261       C  0.68823519  0.42121552  0.32800735    -0.22400
C1262       C  0.71828783  0.94321359  0.37126359     0.00600
H1263       H  0.61466585  0.87896682  0.32569256     0.14400
H1264       H  0.69324258  0.43155380  0.28606170     0.14500
N1265       N  0.70171239  0.65929469  0.54748243    -0.01900
C1266       C  0.68613167  0.61365665  0.55812464     0.00700
C1267       C  0.69616295  0.60839454  0.61169113    -0.22200
C1268       C  0.70412359  0.64778702  0.63787768    -0.22400
C1269       C  0.70120297  0.67533036  0.59848311     0.00600
H1270       H  0.68536171  0.57600211  0.63192966     0.14400
H1271       H  0.70258518  0.65214667  0.68102684     0.14500
N1272       N  0.74382385  0.68389004  0.51750992    -0.01900
C1273       C  0.77909653  0.72232105  0.54218514     0.00700
C1274       C  0.81310134  0.71338739  0.56211226    -0.22200
C1275       C  0.80442860  0.67290880  0.53877513    -0.22400
C1276       C  0.76643148  0.66001058  0.50508227     0.00600
H1277       H  0.84616308  0.73818370  0.57988477     0.14400
H1278       H  0.82933405  0.66102058  0.53568596     0.14500
N1279       N  0.96187929  0.68560377  0.53488062    -0.01900
C1280       C  0.92693301  0.69566844  0.54062060     0.00700
C1281       C  0.40824165  0.68128369  0.59136409    -0.22200
C1282       C  0.43694104  0.66966275  0.61943358    -0.22400
C1283       C  0.47248962  0.67692591  0.58527957     0.00600
H1284       H  0.38458252  0.69012642  0.61103516     0.14400
H1285       H  0.43783206  0.66785741  0.66305324     0.14500
N1286       N  0.96825419  0.66596735  0.48635134    -0.01900
C1287       C  0.00575914  0.65990867  0.48037958     0.00700
C1288       C  0.03218999  0.68800361  0.43875250    -0.22200
C1289       C  0.00436202  0.70082528  0.41057953    -0.22400
C1290       C  0.96341572  0.68260376  0.43819110     0.00600
H1291       H  0.06227923  0.68832942  0.42173480     0.14400
H1292       H  0.00983822  0.71305852  0.36929161     0.14500
C1293       C  0.92870067  0.93490303  0.47709774     0.03900
C1294       C  0.97415610  0.97144186  0.47926860     0.03900
C1295       C  0.51156519  0.96237014  0.48484590     0.03900
C1296       C  0.50302017  0.91606042  0.48751704     0.03900
C1297       C  0.95653672  0.87961389  0.49223181     0.03900
C1298       C  0.91943410  0.88946516  0.48673800     0.03900
N1299       N  0.82378004  0.87811204  0.77808810    -0.01900
C1300       C  0.85219665  0.86141223  0.76235485     0.00700
C1301       C  0.86480996  0.87511240  0.70960156    -0.22200
C1302       C  0.83952541  0.89560660  0.69167708    -0.22400
C1303       C  0.81017673  0.89242845  0.73295608     0.00600
H1304       H  0.88288319  0.86318812  0.68348875     0.14400
H1305       H  0.83458817  0.90056500  0.64920453     0.14500
N1306       N  0.81293317  0.88253868  0.83278268    -0.01900
C1307       C  0.78192201  0.89549431  0.85006091     0.00700
C1308       C  0.76412186  0.87243163  0.89837996    -0.22200
C1309       C  0.78954292  0.85156671  0.91334913    -0.22400
C1310       C  0.82345281  0.86340078  0.87536357     0.00600
H1311       H  0.74174770  0.87666146  0.92632041     0.14400
H1312       H  0.79050616  0.83999569  0.95410796     0.14500
N1313       N  0.57677299  0.90057732  0.78548551    -0.01900
C1314       C  0.58812859  0.94593794  0.78527068     0.00700
C1315       C  0.57558601  0.95499821  0.73462022    -0.22200
C1316       C  0.56770259  0.91873668  0.70080425    -0.22400
C1317       C  0.57110155  0.88654429  0.73257896     0.00600
H1318       H  0.58460122  0.98891437  0.71987220     0.14400
H1319       H  0.56800646  0.91972799  0.65692673     0.14500
N1320       N  0.55290858  0.87017969  0.82891534    -0.01900
C1321       C  0.05173405  0.82898054  0.83231117     0.00700
C1322       C  0.07976126  0.83131561  0.87591070    -0.22200
C1323       C  0.08295207  0.86571610  0.90934367    -0.22400
C1324       C  0.56198747  0.88603697  0.88097257     0.00600
H1325       H  0.08309375  0.80306986  0.89109513     0.14400
H1326       H  0.09064691  0.86879687  0.95250739     0.14500
N1327       N  0.58479625  0.63236935  0.88090701    -0.01900
C1328       C  0.62691190  0.64654825  0.90540277     0.00700
C1329       C  0.62207400  0.63328397  0.95902341    -0.22200
C1330       C  0.57582146  0.60606460  0.96624214    -0.22400
C1331       C  0.55478111  0.60232920  0.91680190     0.00600
H1332       H  0.64891227  0.63701590  0.98738630     0.14400
H1333       H  0.55955452  0.58479850  0.00053955     0.14500
N1334       N  0.57442439  0.66582247  0.85861480    -0.01900
C1335       C  0.54305064  0.67312261  0.88559617     0.00700
C1336       C  0.56392535  0.71575475  0.91045326    -0.22200
C1337       C  0.60760706  0.73833673  0.88981353    -0.22400
C1338       C  0.60963995  0.70911111  0.85126281     0.00600
H1339       H  0.04736833  0.73097388  0.93383596     0.14400
H1340       H  0.63096261  0.77500734  0.89288658     0.14500
C1341       C  0.82851880  0.67884121  0.81767335     0.03900
C1342       C  0.86661218  0.67059269  0.82131514     0.03900
C1343       C  0.85968659  0.62514906  0.82983396     0.03900
C1344       C  0.81444067  0.58637274  0.82884956     0.03900
C1345       C  0.77593199  0.59456411  0.82453141     0.03900
C1346       C  0.78329088  0.64083866  0.82294671     0.03900
O1347       O  0.95939675  0.93117978  0.10067315    -0.76900
C1348       C  0.59130544  0.03540501  0.04957571     0.84200
O1349       O  0.89351811  0.48549991  0.99933418    -0.78000
O1350       O  0.52760720  0.52798856  0.88452404    -0.79500
O1351       O  0.99673689  0.87576521  0.93446005    -0.79300
O1352       O  0.93092808  0.86296880  0.05938039    -0.77900
Zn1353     Zn  0.98578774  0.98350891  0.05356837     1.55700
O1354       O  0.55014883  0.94564046  0.90877905    -0.79300
Cd1355     Cd  0.94782862  0.88929627  0.97750311     1.59700
Cd1356     Cd  0.93561863  0.97805335  0.94531922     1.59600
O1357       O  0.88461592  0.86701731  0.93273093    -0.79300
O1358       O  0.97623551  0.95809132  0.98236362    -1.89800
Cd1359     Cd  0.53550136  0.99056731  0.94487318     1.59900
O1360       O  0.89542223  0.92985368  0.88797430    -0.79200
O1361       O  0.59029977  0.02854401  0.99845902    -0.77900
C1362       C  0.90877197  0.50854244  0.04336204     0.84600
C1363       C  0.93844537  0.88762082  0.10270185     0.84300
O1364       O  0.55404454  0.02029432  0.07616101    -0.76900
C1365       C  0.03406379  0.90284357  0.90923931     0.85100
O1366       O  0.94673637  0.01516785  0.06609708    -0.76900
C1367       C  0.87120229  0.88710991  0.89816421     0.85200
C1368       C  0.51694003  0.55754437  0.90089198     0.85600
O1369       O  0.47753174  0.54476029  0.92070191    -0.79400
O1370       O  0.55512529  0.71376303  0.57649337    -0.76900
C1371       C  0.67250825  0.84208588  0.52369728     0.84200
O1372       O  0.69922754  0.72899531  0.65823037    -0.78000
O1373       O  0.74147214  0.88709959  0.68794981    -0.79500
O1374       O  0.57220308  0.81650455  0.72075488    -0.79300
O1375       O  0.52667957  0.71597900  0.65678712    -0.77900
Zn1376     Zn  0.62524247  0.75274150  0.58969874     1.55700
O1377       O  0.62953102  0.87915616  0.68364590    -0.79300
Cd1378     Cd  0.58379945  0.76316109  0.70099131     1.59700
Cd1379     Cd  0.68160619  0.76965656  0.70249676     1.59600
O1380       O  0.58791707  0.73448980  0.77326781    -0.79300
O1381       O  0.64131703  0.78648562  0.65878948    -1.89800
Cd1382     Cd  0.67373773  0.85622102  0.64878481     1.59900
O1383       O  0.65622126  0.73716303  0.77423998    -0.79200
O1384       O  0.68397240  0.87095020  0.56344718    -0.77900
C1385       C  0.68616652  0.70889961  0.61227296     0.84600
C1386       C  0.52077856  0.70225911  0.60742861     0.84300
O1387       O  0.64999299  0.79887576  0.53141348    -0.76900
C1388       C  0.59200918  0.85923035  0.71084659     0.85100
O1389       O  0.65746971  0.71375055  0.58167080    -0.76900
C1390       C  0.61837237  0.72725464  0.79632422     0.91200
C1391       C  0.76056810  0.86849895  0.71660048     0.85600
O1392       O  0.74009603  0.82587323  0.72599044    -0.79400
C1393       C  0.97958840  0.64229468  0.81745573    -0.19700
C1394       C  0.99325833  0.64753619  0.87225026    -0.07700
C1395       C  0.95969884  0.63429809  0.91242861     0.31100
C1396       C  0.91351630  0.61967129  0.89760427    -0.19700
C1397       C  0.90112219  0.62028330  0.84294048    -0.07700
C1398       C  0.93415826  0.62970442  0.80289257     0.31100
F1399       F  0.92359038  0.63178057  0.75008604    -0.18300
H1400       H  0.00501101  0.65235786  0.78592247     0.19500
H1401       H  0.88872326  0.61343238  0.92896267     0.19500
F1402       F  0.97215630  0.63846519  0.96573581    -0.18300
C1403       C  0.74996517  0.67706722  0.88298857    -0.19700
C1404       C  0.74524392  0.65099432  0.83593111    -0.07700
C1405       C  0.70399892  0.63340553  0.80489570     0.31100
C1406       C  0.66616523  0.63637725  0.82491550    -0.19700
C1407       C  0.66949203  0.65777787  0.87543015    -0.07700
C1408       C  0.71280522  0.68123458  0.90206152     0.31100
F1409       F  0.71834118  0.70547974  0.94867096    -0.18300
H1410       H  0.78191191  0.69224533  0.90668048     0.19500
H1411       H  0.63325900  0.61837342  0.80334030     0.19500
F1412       F  0.69862112  0.60886486  0.75870272    -0.18300
C1413       C  0.93943082  0.72288529  0.87103747    -0.19700
C1414       C  0.91454098  0.71019045  0.82194372    -0.07700
C1415       C  0.93464305  0.73619458  0.77554141     0.31100
C1416       C  0.97935471  0.77433012  0.77869802    -0.19700
C1417       C  0.00532914  0.78623852  0.82769910    -0.07700
C1418       C  0.98364468  0.76033364  0.87442715     0.31100
F1419       F  0.00299516  0.77290524  0.92486705    -0.18300
H1420       H  0.92339547  0.70500696  0.90788014     0.19500
H1421       H  0.99284206  0.79503114  0.74305273     0.19500
F1422       F  0.91053423  0.72541699  0.72776645    -0.18300
C1423       C  0.67259650  0.98609185  0.76821208    -0.19700
C1424       C  0.63640731  0.98109275  0.80181349    -0.07700
C1425       C  0.64713989  0.51336142  0.84434947     0.31100
C1426       C  0.69303214  0.54727700  0.85492374    -0.19700
C1427       C  0.72805291  0.55440583  0.81838767    -0.07700
C1428       C  0.71709491  0.52332880  0.77461446     0.31100
F1429       F  0.74921896  0.52959288  0.73717635    -0.18300
H1430       H  0.66562231  0.96286499  0.73409528     0.19500
H1431       H  0.70054559  0.57040025  0.88932829     0.19500
F1432       F  0.61370908  0.51553271  0.87256960    -0.18300
C1433       C  0.77349218  0.50614063  0.86941137    -0.19700
C1434       C  0.80694600  0.53749341  0.83419671    -0.07700
C1435       C  0.83019863  0.52043435  0.80181112     0.31100
C1436       C  0.82276765  0.47532395  0.80788776    -0.19700
C1437       C  0.78729460  0.94309758  0.84055765    -0.07700
C1438       C  0.76162027  0.95956282  0.86991978     0.31100
F1439       F  0.72434655  0.93105979  0.89911031    -0.18300
H1440       H  0.75495055  0.51741809  0.89563663     0.19500
H1441       H  0.84556707  0.96652894  0.78666799     0.19500
F1442       F  0.85902429  0.54646736  0.76255944    -0.18300
C1443       C  0.87318228  0.81062748  0.82048536    -0.19700
C1444       C  0.84571536  0.81524109  0.77977696    -0.07700
C1445       C  0.81247699  0.77473784  0.75294524     0.31100
C1446       C  0.80874058  0.73179573  0.76419713    -0.19700
C1447       C  0.83488910  0.72663821  0.80628170    -0.07700
C1448       C  0.86533128  0.76679808  0.83652933     0.31100
F1449       F  0.88600832  0.76394541  0.88298933    -0.18300
H1450       H  0.90034370  0.84082725  0.84057942     0.19500
H1451       H  0.78442295  0.70208532  0.74039831     0.19500
F1452       F  0.78343362  0.77653905  0.71529283    -0.18300
C1453       C  0.97849431  0.53976529  0.52746918    -0.19700
C1454       C  0.98230390  0.51957764  0.47909464    -0.07700
C1455       C  0.99384267  0.54521286  0.43156432     0.31100
C1456       C  0.00183182  0.59054700  0.43268547    -0.19700
C1457       C  0.99955487  0.61196427  0.48159526    -0.07700
C1458       C  0.98766582  0.58553301  0.52909396     0.31100
F1459       F  0.98566177  0.60351616  0.57756265    -0.18300
H1460       H  0.96911397  0.52011095  0.56446990     0.19500
H1461       H  0.50880146  0.60849535  0.39456536     0.19500
F1462       F  0.49615686  0.52598590  0.38385211    -0.18300
C1463       C  0.46422860  0.78024103  0.55856615    -0.19700
C1464       C  0.93465732  0.74222211  0.52535578    -0.07700
C1465       C  0.91136084  0.74945224  0.48171358     0.31100
C1466       C  0.91908210  0.79393933  0.47054937    -0.19700
C1467       C  0.94745118  0.83165473  0.50479500    -0.07700
C1468       C  0.46975084  0.82405513  0.54930048     0.31100
F1469       F  0.49702290  0.85908241  0.58394348    -0.18300
H1470       H  0.48217054  0.77560109  0.59301137     0.19500
H1471       H  0.90320909  0.79892994  0.43462962     0.19500
F1472       F  0.88025510  0.71373102  0.45069766    -0.18300
C1473       C  0.80316037  0.78185857  0.47106749    -0.19700
C1474       C  0.79428006  0.77027610  0.52605107    -0.07700
C1475       C  0.81809701  0.80475130  0.56562179     0.31100
C1476       C  0.85733747  0.84544886  0.55186358    -0.19700
C1477       C  0.87127949  0.85340031  0.49795932    -0.07700
C1478       C  0.84121234  0.82403672  0.45694807     0.31100
F1479       F  0.85197565  0.83331161  0.40394560    -0.18300
H1480       H  0.78484883  0.75620148  0.43956656     0.19500
H1481       H  0.87908553  0.86891865  0.58369084     0.19500
F1482       F  0.80873902  0.79526348  0.61863306    -0.18300
C1483       C  0.56170631  0.52021905  0.55192231    -0.19700
C1484       C  0.55727567  0.50151469  0.49990106    -0.07700
C1485       C  0.59491203  0.52145786  0.46463163     0.31100
C1486       C  0.63709778  0.55897006  0.48277972    -0.19700
C1487       C  0.64126834  0.57723957  0.53546676    -0.07700
C1488       C  0.60228420  0.55837816  0.56895261     0.31100
F1489       F  0.60332060  0.57644376  0.61884170    -0.18300
H1490       H  0.53311729  0.50515470  0.57958543     0.19500
H1491       H  0.66650050  0.57313681  0.45630430     0.19500
F1492       F  0.59117094  0.50405750  0.41374468    -0.18300
C1493       C  0.62074810  0.91999981  0.48457220    -0.19700
C1494       C  0.61345695  0.89083057  0.43972970    -0.07700
C1495       C  0.56779771  0.86249233  0.42071519     0.31100
C1496       C  0.53298287  0.87163593  0.43635291    -0.19700
C1497       C  0.54079500  0.90440729  0.47717742    -0.07700
C1498       C  0.58409554  0.92514174  0.50487964     0.31100
F1499       F  0.59134597  0.45089135  0.55072136    -0.18300
H1500       H  0.65505211  0.44076386  0.50222673     0.19500
H1501       H  0.49996105  0.85371040  0.41508107     0.19500
F1502       F  0.55733312  0.82826617  0.38369062    -0.18300
C1503       C  0.81843406  0.93970627  0.48799354    -0.19700
C1504       C  0.80188424  0.92754262  0.43430408    -0.07700
C1505       C  0.83252073  0.93110918  0.39342662     0.31100
C1506       C  0.87663682  0.93898320  0.40754706    -0.19700
C1507       C  0.89026185  0.94339278  0.46225847    -0.07700
C1508       C  0.86254315  0.94720097  0.50217327     0.31100
F1509       F  0.87586667  0.95263287  0.55525391    -0.18300
H1510       H  0.79519790  0.93696960  0.51999385     0.19500
H1511       H  0.89819715  0.93662834  0.37645055     0.19500
F1512       F  0.81737785  0.91992142  0.34115227    -0.18300
C1513       C  0.78560995  0.78649430  0.12504540    -0.19700
C1514       C  0.80357338  0.79913793  0.17817200    -0.07700
C1515       C  0.77461385  0.79806095  0.21977431     0.31100
C1516       C  0.73176862  0.79359445  0.20671929    -0.19700
C1517       C  0.71593025  0.78672012  0.15268781    -0.07700
C1518       C  0.74142160  0.77982102  0.11229827     0.31100
F1519       F  0.72602113  0.77222029  0.05991481    -0.18300
H1520       H  0.80771299  0.78765126  0.09245319     0.19500
H1521       H  0.71237229  0.79898600  0.23822491     0.19500
F1522       F  0.79102030  0.80931475  0.27165234    -0.18300
C1523       C  0.54526570  0.79737526  0.21348875    -0.19700
C1524       C  0.56068183  0.81325816  0.16123680    -0.07700
C1525       C  0.53792457  0.83136273  0.12990103     0.31100
C1526       C  0.49957097  0.83266006  0.15071898    -0.19700
C1527       C  0.98469854  0.81792219  0.20360915    -0.07700
C1528       C  0.50783876  0.79966009  0.23463858     0.31100
F1529       F  0.99362542  0.78258894  0.28482898    -0.18300
H1530       H  0.56229266  0.78280349  0.23787321     0.19500
H1531       H  0.48206193  0.84534156  0.12523876     0.19500
F1532       F  0.55203475  0.84667244  0.07902076    -0.18300
C1533       C  0.74384685  0.90503739  0.19191748    -0.19700
C1534       C  0.73139956  0.87913449  0.14359028    -0.07700
C1535       C  0.76536153  0.89038756  0.10390105     0.31100
C1536       C  0.81107031  0.92602517  0.11348386    -0.19700
C1537       C  0.82341313  0.95214331  0.16199362    -0.07700
C1538       C  0.78869803  0.94140192  0.20078144     0.31100
F1539       F  0.79817972  0.96587444  0.24792186    -0.18300
H1540       H  0.71858576  0.89654873  0.22324413     0.19500
H1541       H  0.83667419  0.93273635  0.08316373     0.19500
F1542       F  0.75427351  0.86706128  0.05583536    -0.18300
C1543       C  0.46671508  0.68398830  0.08632277    -0.19700
C1544       C  0.95255170  0.64318866  0.11609002    -0.07700
C1545       C  0.98521866  0.64354975  0.15417455     0.31100
C1546       C  0.52723072  0.68360255  0.16496837    -0.19700
C1547       C  0.54286032  0.72187635  0.13102438    -0.07700
C1548       C  0.51172796  0.72127682  0.09123093     0.31100
F1549       F  0.52534802  0.75594714  0.05518990    -0.18300
H1550       H  0.44452513  0.68672467  0.05588738     0.19500
H1551       H  0.54897291  0.68313379  0.19770859     0.19500
F1552       F  0.98001860  0.60469805  0.17741128    -0.18300
C1553       C  0.63566470  0.69773248  0.19691483    -0.19700
C1554       C  0.62476107  0.70805879  0.14557980    -0.07700
C1555       C  0.60445232  0.67285576  0.10610273     0.31100
C1556       C  0.59521449  0.62803612  0.11839140    -0.19700
C1557       C  0.60785010  0.61813732  0.16918254    -0.07700
C1558       C  0.62866369  0.65399061  0.20822577     0.31100
F1559       F  0.64165648  0.64678607  0.25811227    -0.18300
H1560       H  0.64846250  0.72337667  0.22910905     0.19500
H1561       H  0.57743985  0.60137318  0.08877309     0.19500
F1562       F  0.59159078  0.68135353  0.05683755    -0.18300
C1563       C  0.65094687  0.96186506  0.17267763    -0.19700
C1564       C  0.67290032  0.98829337  0.12686750    -0.07700
C1565       C  0.68333958  0.96591413  0.08436068     0.31100
C1566       C  0.67309059  0.92006896  0.08870296    -0.19700
C1567       C  0.65208787  0.89446189  0.13476765    -0.07700
C1568       C  0.64123509  0.91594643  0.17701466     0.31100
F1569       F  0.62165714  0.89289375  0.22285159    -0.18300
H1570       H  0.64090497  0.97623594  0.20560090     0.19500
H1571       H  0.68148013  0.90419491  0.05541252     0.19500
F1572       F  0.70134978  0.98679084  0.03681152    -0.18300
loop_ 
_geom_bond_atom_site_label_1 
_geom_bond_atom_site_label_2 
_geom_bond_distance 
_geom_bond_site_symmetry_2 
_ccdc_geom_bond_type 
N1            N8   1.427       .  S
N1          C398   1.356       .  A
N1          C395   1.361       .  A
C2          N394   1.361       .  A
C2            C3   1.388       .  A
C2          C385   1.515       .  S
C3            C4   1.372       .  A
C3            H6   1.082       .  S
C4            C5   1.381       .  A
C4            H7   1.083       .  S
C5          N394   1.356       .  A
C5          C169   1.487       .  S
N8           C12   1.358       .  A
N8            C9   1.361       .  A
C9           C10   1.388       .  A
C9          C378   1.493       .  S
C10          C11   1.374       .  A
C10          H13   1.083       .  S
C11          C12   1.380       .  A
C11          H14   1.083       .  S
C12          C70   1.487       .  S
N15          N22   1.423       .  S
N15          C19   1.349       .  A
N15          C16   1.366       .  A
C16          C17   1.393       .  A
C16         C365   1.524       .  S
C17          C18   1.372       .  A
C17         H806   1.079       .  S
C18          C19   1.378       .  A
C18          H21   1.083   1_554  S
C19         C183   1.474       .  S
H20         C803   1.079       .  S
N22          C26   1.346       .  A
N22         C416   1.363   1_545  A
C23         N415   1.363       .  A
C23          C24   1.391       .  A
C23         C358   1.504       .  S
C24         C418   1.371       .  A
C24          H27   1.078       .  S
C25          C26   1.377       .  A
C25         C417   1.371   1_545  A
C25          H28   1.083       .  S
C26          C69   1.456       .  S
N29          N36   1.446       .  S
N29          C33   1.381       .  A
N29          C30   1.368       .  A
C30          C31   1.381       .  A
C30         C348   1.483       .  S
C31          C32   1.362       .  A
C31          H34   1.083       .  S
C32          C33   1.384       .  A
C32          H35   1.082       .  S
C33          C67   1.479       .  S
N36          C40   1.377       .  A
N36          C37   1.364       .  A
C37          C38   1.370       .  A
C37         C335   1.464       .  S
C38          C39   1.351       .  A
C38          H41   1.079       .  S
C39          C40   1.391       .  A
C39          H42   1.083       .  S
C40         C184   1.501       .  S
C43          C44   1.419       .  A
C43          C48   1.424       .  A
C43         C388   1.501       .  S
C44          C45   1.419       .  A
C44         C355   1.508       .  S
C45          C46   1.418       .  A
C45         C338   1.479       .  S
C46          C47   1.420       .  A
C46         C375   1.489       .  S
C47          C48   1.423       .  A
C47         C368   1.517       .  S
C48         C345   1.476       .  S
O49          C65   1.286       .  A
O49         Zn55   2.091       .  S
C50          C97   1.474       .  S
C50          O66   1.272       .  A
C50          O63   1.281       .  A
O51          C64   1.273   1_545  A
O51         Cd58   2.029       .  S
O52          C70   1.283       .  A
O52         Cd61   2.110       .  S
O53          C67   1.275       .  A
O53         Cd57   2.060       .  S
O54          C65   1.273       .  A
O54         Cd57   2.050       .  S
Zn55         O66   1.975       .  S
Zn55         O68   2.097       .  S
Zn55         O60   1.956       .  S
O56          C67   1.286       .  A
O56         Cd61   2.130       .  S
Cd57         O59   2.048       .  S
Cd57         O60   1.968       .  S
Cd58         O62   2.058       .  S
Cd58         O71   2.079       .  S
Cd58         O60   1.964       .  S
O59          C69   1.268       .  A
O60         Cd61   1.990       .  S
Cd61         O63   2.116       .  S
O62          C69   1.274       .  A
C64         C476   1.494       .  S
C64          O68   1.279   1_565  A
C65         C111   1.483       .  S
C70          O71   1.273       .  A
N72          N79   1.439       .  S
N72          C76   1.375       .  A
N72          C73   1.366       .  A
C73          C74   1.378       .  A
C73         C325   1.467       .  S
C74          C75   1.355       .  A
C74          H77   1.083       .  S
C75          C76   1.388       .  A
C75          H78   1.083       .  S
C76         C192   1.494       .  S
N79          C83   1.379       .  A
N79          C80   1.373       .  A
C80          C81   1.382       .  A
C80         C315   1.487       .  S
C81         C475   1.348       .  A
C81          H84   1.080       .  S
C82         C474   1.348       .  A
C82         C476   1.382       .  A
C82          H85   1.081       .  S
C83         C475   1.383       .  A
C83         C457   1.493       .  S
N86          N93   1.445       .  S
N86          C90   1.366       .  A
N86          C87   1.373       .  A
C87          C88   1.389       .  A
C87         C308   1.484       .  S
C88          C89   1.361       .  A
C88          H91   1.083       .  S
C89          C90   1.373       .  A
C89          H92   1.078       .  S
C90         C206   1.468       .  S
N93          C97   1.368       .  A
N93          C94   1.372       .  A
C94          C95   1.383       .  A
C94         C295   1.479       .  S
C95          C96   1.355       .  A
C95          H98   1.083       .  S
C96          C97   1.378       .  A
C96          H99   1.079       .  S
N100        N107   1.427       .  S
N100        C101   1.363       .  A
N100        C890   1.357       .  A
C101        C888   1.386       .  A
C101        C285   1.493       .  S
C102        C103   1.370       .  A
C102        C887   1.386       .  A
C102        H105   1.082       .  S
C103        C104   1.382       .  A
C103        H106   1.078       .  S
C104        N886   1.357       .  A
C104        C207   1.491   1_655  S
N107        C111   1.353       .  A
N107        C108   1.363       .  A
C108        C109   1.390       .  A
C108        C278   1.506       .  S
C109        C110   1.373       .  A
C109        H112   1.083       .  S
C110        C111   1.379       .  A
C110        H113   1.083       .  S
C114        C115   1.401       .  A
C114        C119   1.411       .  A
C114        C328   1.475       .  S
C115        C902   1.417       .  A
C115        C668   1.491       .  S
C116        C117   1.427       .  A
C116        C901   1.417   1_455  A
C116        C698   1.480       .  S
C117        C904   1.428   1_455  A
C117        C318   1.505       .  S
C118        C119   1.424       .  A
C118        C903   1.428       .  A
C118        C288   1.508       .  S
C119        C298   1.487       .  S
N120        N127   1.425       .  S
N120        C124   1.367       .  A
N120        C121   1.366       .  A
C121        C122   1.382       .  A
C121        C265   1.510       .  S
C122        C123   1.383       .  A
C122        H125   1.082       .  S
C123        C124   1.387       .  A
C123        H126   1.083       .  S
C124        C212   1.483       .  S
N127        C131   1.357       .  A
N127        C128   1.366       .  A
C128        C129   1.394       .  A
C128        C258   1.524       .  S
C129        C130   1.376       .  A
C129        H132   1.077       .  S
C130        C131   1.378       .  A
C130        H133   1.083       .  S
C131        C188   1.481       .  S
N134        N141   1.432       .  S
N134        C138   1.361       .  A
N134        C135   1.366       .  A
C135        C136   1.390       .  A
C135        C245   1.498       .  S
C136        C137   1.376       .  A
C136        H139   1.084       .  S
C137        C138   1.378       .  A
C137        H140   1.082       .  S
C138        C209   1.488       .  S
N141        C145   1.357       .  A
N141        C928   1.355       .  A
C142        N927   1.355       .  A
C142        C143   1.387       .  A
C142        C238   1.503       .  S
C143        C144   1.367       .  A
C143        H146   1.068       .  S
C144        C931   1.371       .  A
C144        H147   1.083       .  S
C145        C930   1.371       .  A
C145        C972   1.473       .  S
N148        N155   1.426       .  S
N148        C152   1.356       .  A
N148        C149   1.366       .  A
C149        C150   1.382       .  A
C149        C228   1.482       .  S
C150        C151   1.363       .  A
C150        H153   1.081       .  S
C151        C152   1.369       .  A
C151        H154   1.074   1_556  S
C152        C189   1.450       .  S
N155        C159   1.356       .  A
N155        C156   1.359       .  A
C156        C157   1.373       .  A
C156       C1001   1.474   1_455  S
C157        C158   1.373       .  A
C157        H946   1.079       .  S
C158        C159   1.382       .  A
C158        H161   1.082       .  S
C159        C211   1.460       .  S
H160        C943   1.079       .  S
C162        C163   1.419       .  A
C162        C167   1.422       .  A
C162        C268   1.527       .  S
C163        C164   1.432       .  A
C163        C235   1.489       .  S
C164        C165   1.423       .  A
C164        C218   1.490       .  S
C165        C166   1.432       .  A
C165        C255   1.528       .  S
C166        C167   1.438       .  A
C166        C248   1.499       .  S
C167        C225   1.495       .  S
O168        C184   1.267       .  A
O168       Zn174   1.925       .  S
C169        O185   1.277       .  A
C169        O182   1.276   1_554  A
O170        C183   1.272   1_566  A
O170       Cd570   2.047       .  S
O171        C189   1.263       .  A
O171       Cd573   2.043   1_545  S
O172        C186   1.293       .  A
O172       Cd176   2.172       .  S
O173        C184   1.288       .  A
O173       Cd176   2.175   1_554  S
Zn174       O187   2.053       .  S
Zn174       O971   2.045       .  S
Zn174       O179   1.898   1_554  S
O175        C972   1.255       .  A
O175       Cd180   1.991       .  S
Cd176       O178   2.136       .  S
Cd176       O179   2.008       .  S
Cd177       O181   2.045       .  S
Cd177       O563   2.048       .  S
Cd177      O1369   2.065       .  S
Cd177       O179   1.983       .  S
O178        C188   1.287       .  A
O179       Cd966   1.968       .  S
Cd180       O182   2.076       .  S
Cd180       O564   2.042       .  S
Cd180       O965   1.968   1_455  S
O181        C188   1.275       .  A
C183        O580   1.281       .  A
O185       Zn960   2.045   1_455  S
C186        C931   1.473       .  S
C186        O961   1.255       .  A
O187        C576   1.281       .  A
C189        O190   1.267   1_455  A
O190      Cd1356   2.065   1_545  S
O191        C207   1.276       .  A
O191       Zn197   2.055       .  S
C192        O208   1.273       .  A
C192        O205   1.284       .  A
O193        C206   1.270       .  A
O193       Cd200   2.034       .  S
O194        C212   1.287       .  A
O194       Cd203   2.168       .  S
O195        C209   1.269       .  A
O195       Cd199   2.049       .  S
O196        C207   1.275       .  A
O196       Cd199   2.063       .  S
Zn197       O208   1.981       .  S
Zn197       O210   2.055       .  S
Zn197       O202   1.952       .  S
O198        C209   1.289       .  A
O198       Cd203   2.142       .  S
Cd199       O201   2.060       .  S
Cd199       O202   1.986       .  S
Cd200       O204   2.045       .  S
Cd200       O213   2.002       .  S
Cd200       O202   1.988       .  S
O201        C211   1.274       .  A
O202       Cd203   2.045       .  S
Cd203       O205   2.156       .  S
O204        C211   1.264       .  A
C206        O210   1.277       .  A
C212        O213   1.263       .  A
C214        C215   1.401       .  A
C214        C219   1.392       .  A
C214        H221   1.083       .  S
C215        C216   1.404       .  A
C215        C942   1.473       .  S
C216        C217   1.403       .  A
C216        F223   1.357       .  S
C217        C218   1.406       .  A
C217        H222   1.082       .  S
C218        C219   1.404       .  A
C219        F220   1.354       .  S
C224        C225   1.405       .  A
C224        C229   1.393       .  A
C224        H231   1.083       .  S
C225        C226   1.407       .  A
C226        C227   1.402       .  A
C226        F233   1.355       .  S
C227        C228   1.407       .  A
C227        H232   1.083       .  S
C228        C229   1.405       .  A
C229        F230   1.358       .  S
C234        C235   1.396       .  A
C234        C239   1.386       .  A
C234        H241   1.083       .  S
C235        C236   1.404       .  A
C236        C237   1.405       .  A
C236        F243   1.357       .  S
C237        C238   1.410       .  A
C237        H242   1.079       .  S
C238        C239   1.420       .  A
C239        F240   1.357       .  S
C244        C245   1.410       .  A
C244        C642   1.394       .  A
C244        H251   1.082       .  S
C245        C639   1.408       .  A
C246        C247   1.402       .  A
C246        C638   1.408   1_545  A
C246        F253   1.348       .  S
C247        C248   1.407       .  A
C247        H252   1.083       .  S
C248        C249   1.405       .  A
C249        C637   1.394   1_545  A
C249        F250   1.358       .  S
C254        C255   1.407       .  A
C254        C652   1.405   1_545  A
C254        H261   1.082       .  S
C255        C256   1.412       .  A
C256        C257   1.407   1_545  A
C256        F263   1.352       .  S
C257        C651   1.412       .  A
C257        H655   1.077       .  S
C258        C259   1.420       .  A
C258        C650   1.412       .  A
C259        C647   1.405       .  A
C259        F260   1.355       .  S
H262        C650   1.077       .  S
C264        C265   1.404       .  A
C264        C269   1.411       .  A
C264        H271   1.079       .  S
C265        C266   1.410       .  A
C266        C267   1.402       .  A
C266        F273   1.350       .  S
C267        C268   1.406       .  A
C267        H272   1.083       .  S
C268        C269   1.418       .  A
C269        F270   1.353       .  S
C274        C275   1.403       .  A
C274        C279   1.401       .  A
C274        H281   1.083       .  S
C275        C276   1.397       .  A
C275        C508   1.491   1_545  S
C276        C277   1.398       .  A
C276       F1069   1.358       .  S
C277        C278   1.418       .  A
C277       H1068   1.082       .  S
C278        C279   1.409       .  A
C279        F280   1.350       .  S
H282       C1063   1.082       .  S
F283       C1062   1.358       .  S
C284        C289   1.399       .  A
C284       C1071   1.409       .  A
C284        H291   1.084       .  S
C285        C286   1.404       .  A
C285       C1070   1.409       .  A
C286        C287   1.404       .  A
C286        F293   1.353       .  S
C287        C288   1.409       .  A
C287        H292   1.078       .  S
C288       C1075   1.407       .  A
C289       C1074   1.407       .  A
C289        F290   1.357       .  S
C294        C295   1.407       .  A
C294        C299   1.405       .  A
C294        H301   1.083       .  S
C295        C296   1.404       .  A
C296        C297   1.393       .  A
C296        F303   1.351       .  S
C297        C298   1.397       .  A
C297        H302   1.083       .  S
C298        C299   1.407       .  A
C299        F300   1.357       .  S
C304        C305   1.396       .  A
C304        C309   1.381       .  A
C304        H311   1.083       .  S
C305        C306   1.408       .  A
C305        C509   1.480   1_545  S
C306        C307   1.409       .  A
C306        F313   1.357       .  S
C307        C308   1.407       .  A
C307        H312   1.083       .  S
C308        C309   1.411       .  A
C309        F310   1.358       .  S
C314        C315   1.405       .  A
C314        C319   1.406       .  A
C314        H714   1.083       .  S
C315        C316   1.407       .  A
C316        C317   1.388       .  A
C316        F323   1.358       .  S
C317        C318   1.405       .  A
C317        H322   1.082   1_455  S
C318        C319   1.415       .  A
C319        F713   1.355       .  S
F320        C712   1.355       .  S
H321        C707   1.083       .  S
C324        C325   1.404       .  A
C324        C329   1.397       .  A
C324        H331   1.084       .  S
C325        C326   1.405       .  A
C326        C327   1.392       .  A
C326        F333   1.358       .  S
C327        C328   1.400       .  A
C327        H332   1.084       .  S
C328        C329   1.403       .  A
C329        F330   1.357       .  S
C334        C335   1.404       .  A
C334        C339   1.400       .  A
C334        H341   1.083       .  S
C335        C336   1.404       .  A
C336        C337   1.387       .  A
C336        F343   1.359       .  S
C337        C338   1.400       .  A
C337        H342   1.084       .  S
C338        C339   1.403       .  A
C339        F340   1.357       .  S
C344        C345   1.401       .  A
C344        C349   1.388       .  A
C344        H351   1.084       .  S
C345        C346   1.400       .  A
C346        C347   1.398   1_455  A
C346        F353   1.358       .  S
C347       C1134   1.405       .  A
C347        H352   1.068       .  S
C348       C1133   1.405       .  A
C348       C1135   1.409       .  A
C349       C1134   1.409   1_455  A
C349       F1136   1.358   1_455  S
F350       C1135   1.358       .  S
C354        C355   1.400       .  A
C354        C359   1.398       .  A
C354        H361   1.081       .  S
C355        C356   1.411       .  A
C356        C357   1.411       .  A
C356        F363   1.356       .  S
C357        C358   1.407       .  A
C357        H362   1.079       .  S
C358        C359   1.415       .  A
C359        F360   1.357       .  S
C364        C369   1.403   1_655  A
C364       C1151   1.417       .  A
C364        H371   1.078       .  S
C365        C366   1.418       .  A
C365       C1150   1.417       .  A
C366       C1153   1.401       .  A
C366        F373   1.350       .  S
C367        C368   1.404       .  A
C367       C1152   1.401   1_455  A
C367        H372   1.079       .  S
C368        C369   1.406       .  A
C369        F370   1.356       .  S
C374        C375   1.401       .  A
C374        C379   1.388       .  A
C374        H381   1.080       .  S
C375        C376   1.404       .  A
C376        C377   1.404       .  A
C376        F383   1.357       .  S
C377        C378   1.405       .  A
C377        H382   1.066       .  S
C378        C379   1.410       .  A
C379        F380   1.358       .  S
C384        C385   1.410       .  A
C384        C389   1.405       .  A
C384        H391   1.075       .  S
C385        C386   1.423       .  A
C386        C387   1.397       .  A
C386        F393   1.356       .  S
C387        C388   1.398       .  A
C387        H392   1.084       .  S
C388        C389   1.406       .  A
C389        F390   1.354       .  S
N394        N401   1.427       .  S
C395        C396   1.388       .  A
C395        C778   1.515   1_545  S
C396        C397   1.372       .  A
C396        H399   1.082       .  S
C397        C398   1.381       .  A
C397        H400   1.083       .  S
C398        C562   1.486       .  S
N401        C405   1.358       .  A
N401        C402   1.361       .  A
C402        C403   1.388       .  A
C402        C771   1.493       .  S
C403        C404   1.374       .  A
C403        H406   1.083       .  S
C404        C405   1.380       .  A
C404        H407   1.083       .  S
C405        C463   1.487       .  S
N408        N415   1.423       .  S
N408        C412   1.349       .  A
N408        C409   1.365       .  A
C409        C410   1.393       .  A
C409        C758   1.523       .  S
C410        C411   1.372       .  A
C410       H1199   1.079       .  S
C411        C412   1.378       .  A
C411        H414   1.083   1_554  S
C412        C576   1.474       .  S
H413       C1196   1.079       .  S
N415        C419   1.346       .  A
C416        C417   1.391       .  A
C416        C751   1.504       .  S
C417        H420   1.078       .  S
C418        C419   1.377       .  A
C418        H421   1.083       .  S
C419        C462   1.457       .  S
N422        N429   1.446       .  S
N422        C426   1.381       .  A
N422        C423   1.368       .  A
C423        C424   1.381       .  A
C423        C741   1.484       .  S
C424        C425   1.362       .  A
C424        H427   1.083       .  S
C425        C426   1.384       .  A
C425        H428   1.082       .  S
C426        C460   1.479       .  S
N429        C433   1.377       .  A
N429        C430   1.364       .  A
C430        C431   1.370       .  A
C430        C728   1.464       .  S
C431        C432   1.351       .  A
C431        H434   1.079       .  S
C432        C433   1.391       .  A
C432        H435   1.083       .  S
C433        C577   1.501       .  S
C436        C437   1.419       .  A
C436        C441   1.424       .  A
C436        C781   1.500       .  S
C437        C438   1.419       .  A
C437        C748   1.508       .  S
C438        C439   1.418       .  A
C438        C731   1.479       .  S
C439        C440   1.420       .  A
C439        C768   1.489       .  S
C440        C441   1.422       .  A
C440        C761   1.517       .  S
C441        C738   1.477       .  S
O442        C458   1.286       .  A
O442       Zn448   2.091       .  S
C443        C490   1.474       .  S
C443        O459   1.272       .  A
C443        O456   1.280       .  A
O444        C457   1.273       .  A
O444       Cd451   2.028       .  S
O445        C463   1.283       .  A
O445       Cd454   2.110       .  S
O446        C460   1.275       .  A
O446       Cd450   2.059       .  S
O447        C458   1.273       .  A
O447       Cd450   2.050       .  S
Zn448       O459   1.975       .  S
Zn448       O461   2.095       .  S
Zn448       O453   1.956       .  S
O449        C460   1.286       .  A
O449       Cd454   2.129       .  S
Cd450       O452   2.048       .  S
Cd450       O453   1.968       .  S
Cd451       O455   2.058       .  S
Cd451       O464   2.080       .  S
Cd451       O453   1.965       .  S
O452        C462   1.268       .  A
O453       Cd454   1.991       .  S
Cd454       O456   2.116       .  S
O455        C462   1.274       .  A
C457        O461   1.279       .  A
C458        C504   1.483       .  S
C463        O464   1.274       .  A
N465        N472   1.439       .  S
N465        C469   1.375       .  A
N465        C466   1.366       .  A
C466        C467   1.378       .  A
C466        C718   1.467       .  S
C467        C468   1.355       .  A
C467        H470   1.083       .  S
C468        C469   1.388       .  A
C468        H471   1.083       .  S
C469        C585   1.494       .  S
N472        C476   1.380       .  A
N472        C473   1.373       .  A
C473        C474   1.382       .  A
C473        C708   1.487       .  S
C474        H477   1.080       .  S
C475        H478   1.081       .  S
N479        N486   1.445       .  S
N479        C483   1.366       .  A
N479        C480   1.373       .  A
C480        C481   1.389       .  A
C480        C701   1.484       .  S
C481        C482   1.361       .  A
C481        H484   1.083       .  S
C482        C483   1.373       .  A
C482        H485   1.078       .  S
C483        C599   1.468       .  S
N486        C490   1.368       .  A
N486        C487   1.372       .  A
C487        C488   1.383       .  A
C487        C688   1.479       .  S
C488        C489   1.355       .  A
C488        H491   1.083       .  S
C489        C490   1.378       .  A
C489        H492   1.079       .  S
N493        N500   1.427       .  S
N493       C1283   1.357       .  A
N493        C494   1.363       .  A
C494       C1281   1.385       .  A
C494        C678   1.493       .  S
C495       C1280   1.385       .  A
C495        C496   1.370       .  A
C495        H498   1.082       .  S
C496        C497   1.382       .  A
C496        H499   1.078       .  S
C497       N1279   1.357       .  A
C497        C600   1.491   1_655  S
N500        C504   1.353       .  A
N500        C501   1.363       .  A
C501        C502   1.390       .  A
C501        C671   1.506       .  S
C502        C503   1.372       .  A
C502        H505   1.083       .  S
C503        C504   1.379       .  A
C503        H506   1.083       .  S
C507        C508   1.400       .  A
C507        C512   1.411       .  A
C507        C721   1.475       .  S
C508       C1295   1.417       .  A
C509       C1294   1.416   1_455  A
C509        C510   1.427       .  A
C510       C1297   1.428   1_455  A
C510        C711   1.505       .  S
C511       C1296   1.428       .  A
C511        C512   1.424       .  A
C511        C681   1.508       .  S
C512        C691   1.488       .  S
N513        N520   1.425       .  S
N513        C517   1.367       .  A
N513        C514   1.366       .  A
C514        C515   1.382       .  A
C514        C658   1.510       .  S
C515        C516   1.383       .  A
C515        H518   1.082       .  S
C516        C517   1.387       .  A
C516        H519   1.083       .  S
C517        C605   1.483       .  S
N520        C524   1.357       .  A
N520        C521   1.366       .  A
C521        C522   1.395       .  A
C521        C651   1.525       .  S
C522        C523   1.376       .  A
C522        H525   1.077       .  S
C523        C524   1.378       .  A
C523        H526   1.083       .  S
C524        C581   1.481       .  S
N527        N534   1.432       .  S
N527        C531   1.362       .  A
N527        C528   1.366       .  A
C528        C529   1.390       .  A
C528        C638   1.498       .  S
C529        C530   1.376       .  A
C529        H532   1.084       .  S
C530        C531   1.378       .  A
C530        H533   1.082       .  S
C531        C602   1.488       .  S
N534        C538   1.357       .  A
N534       C1321   1.355       .  A
C535       N1320   1.356       .  A
C535        C536   1.387       .  A
C535        C631   1.504       .  S
C536        C537   1.367       .  A
C536        H539   1.068       .  S
C537       C1324   1.371       .  A
C537        H540   1.083       .  S
C538       C1323   1.371       .  A
C538       C1365   1.473       .  S
N541        N548   1.426       .  S
N541        C545   1.356       .  A
N541        C542   1.366       .  A
C542        C543   1.382       .  A
C542        C621   1.482       .  S
C543        C544   1.363       .  A
C543        H546   1.081       .  S
C544        C545   1.369       .  A
C544        H547   1.074   1_556  S
C545        C582   1.450       .  S
N548        C552   1.356       .  A
N548        C549   1.359       .  A
C549        C550   1.373       .  A
C549       C1394   1.473   1_455  S
C550        C551   1.373       .  A
C550       H1339   1.079       .  S
C551        C552   1.381       .  A
C551        H554   1.081       .  S
C552        C604   1.460       .  S
H553       C1336   1.079       .  S
C555        C556   1.419       .  A
C555        C560   1.422       .  A
C555        C661   1.527       .  S
C556        C557   1.432       .  A
C556        C628   1.489       .  S
C557        C558   1.423       .  A
C557        C611   1.490       .  S
C558        C559   1.432       .  A
C558        C648   1.528       .  S
C559        C560   1.438       .  A
C559        C641   1.499       .  S
C560        C618   1.495       .  S
O561        C577   1.267       .  A
O561       Zn567   1.926       .  S
C562        O578   1.277       .  A
C562        O575   1.276   1_554  A
O563        C576   1.272   1_556  A
O564        C582   1.263       .  A
O565        C579   1.293       .  A
O565       Cd569   2.171       .  S
O566        C577   1.287       .  A
O566       Cd569   2.174   1_554  S
Zn567      O1364   2.045   1_565  S
Zn567       O580   2.054   1_565  S
Zn567       O572   1.898   1_554  S
O568       C1365   1.255       .  A
O568       Cd573   1.992       .  S
Cd569       O571   2.136       .  S
Cd569       O572   2.008       .  S
Cd570       O574   2.044       .  S
Cd570       O976   2.065   1_565  S
Cd570       O572   1.983       .  S
O571        C581   1.287       .  A
O572      Cd1359   1.969       .  S
Cd573       O575   2.076   1_565  S
Cd573      O1358   1.969   1_455  S
O574        C581   1.275       .  A
O578      Zn1353   2.045   1_445  S
C579       C1324   1.473       .  S
C579       O1354   1.255       .  A
C582        O583   1.267   1_455  A
O583       Cd963   2.065       .  S
O584        C600   1.276       .  A
O584       Zn590   2.055       .  S
C585        O601   1.273       .  A
C585        O598   1.284       .  A
O586        C599   1.270       .  A
O586       Cd593   2.034       .  S
O587        C605   1.287       .  A
O587       Cd596   2.168       .  S
O588        C602   1.269       .  A
O588       Cd592   2.049       .  S
O589        C600   1.275       .  A
O589       Cd592   2.063       .  S
Zn590       O601   1.981       .  S
Zn590       O603   2.054       .  S
Zn590       O595   1.952       .  S
O591        C602   1.289       .  A
O591       Cd596   2.142       .  S
Cd592       O594   2.059       .  S
Cd592       O595   1.986       .  S
Cd593       O597   2.045       .  S
Cd593       O606   2.002       .  S
Cd593       O595   1.988       .  S
O594        C604   1.273       .  A
O595       Cd596   2.045       .  S
Cd596       O598   2.156       .  S
O597        C604   1.264       .  A
C599        O603   1.277       .  A
C605        O606   1.263       .  A
C607        C608   1.401       .  A
C607        C612   1.392       .  A
C607        H614   1.083       .  S
C608        C609   1.404       .  A
C608       C1335   1.473       .  S
C609        C610   1.403       .  A
C609        F616   1.357       .  S
C610        C611   1.406       .  A
C610        H615   1.082       .  S
C611        C612   1.404       .  A
C612        F613   1.354       .  S
C617        C618   1.405       .  A
C617        C622   1.393       .  A
C617        H624   1.083       .  S
C618        C619   1.407       .  A
C619        C620   1.402       .  A
C619        F626   1.355       .  S
C620        C621   1.407       .  A
C620        H625   1.083       .  S
C621        C622   1.405       .  A
C622        F623   1.358       .  S
C627        C628   1.396       .  A
C627        C632   1.386       .  A
C627        H634   1.083       .  S
C628        C629   1.404       .  A
C629        C630   1.405       .  A
C629        F636   1.357       .  S
C630        C631   1.410       .  A
C630        H635   1.079       .  S
C631        C632   1.420       .  A
C632        F633   1.357       .  S
C637        C638   1.410       .  A
C637        H644   1.082       .  S
C639        C640   1.402       .  A
C639        F646   1.348       .  S
C640        C641   1.407       .  A
C640        H645   1.083       .  S
C641        C642   1.405       .  A
C642        F643   1.358       .  S
C647        C648   1.408       .  A
C647        H654   1.082       .  S
C648        C649   1.412       .  A
C649        C650   1.407       .  A
C649        F656   1.352       .  S
C651        C652   1.420       .  A
C652        F653   1.354       .  S
C657        C658   1.404       .  A
C657        C662   1.411       .  A
C657        H664   1.079       .  S
C658        C659   1.410       .  A
C659        C660   1.403       .  A
C659        F666   1.350       .  S
C660        C661   1.406       .  A
C660        H665   1.083       .  S
C661        C662   1.418       .  A
C662        F663   1.353       .  S
C667        C668   1.402       .  A
C667        C672   1.400       .  A
C667        H674   1.083       .  S
C668        C669   1.397       .  A
C669        C670   1.399       .  A
C669       F1462   1.358       .  S
C670        C671   1.418       .  A
C670       H1461   1.082       .  S
C671        C672   1.409       .  A
C672        F673   1.350       .  S
H675       C1456   1.082       .  S
F676       C1455   1.358       .  S
C677       C1464   1.409       .  A
C677        C682   1.399       .  A
C677        H684   1.084       .  S
C678       C1463   1.409       .  A
C678        C679   1.404       .  A
C679        C680   1.403       .  A
C679        F686   1.353       .  S
C680        C681   1.409       .  A
C680        H685   1.078       .  S
C681       C1468   1.407       .  A
C682       C1467   1.407       .  A
C682        F683   1.357       .  S
C687        C688   1.407       .  A
C687        C692   1.405       .  A
C687        H694   1.083       .  S
C688        C689   1.404       .  A
C689        C690   1.393       .  A
C689        F696   1.351       .  S
C690        C691   1.397       .  A
C690        H695   1.083       .  S
C691        C692   1.407       .  A
C692        F693   1.356       .  S
C697        C698   1.396       .  A
C697        C702   1.381       .  A
C697        H704   1.083       .  S
C698        C699   1.408       .  A
C699        C700   1.409       .  A
C699        F706   1.357       .  S
C700        C701   1.407       .  A
C700        H705   1.083       .  S
C701        C702   1.411       .  A
C702        F703   1.358       .  S
C707        C708   1.405       .  A
C707        C712   1.406       .  A
C708        C709   1.407       .  A
C709        C710   1.388       .  A
C709        F716   1.358       .  S
C710        C711   1.405       .  A
C710        H715   1.082   1_455  S
C711        C712   1.415       .  A
C717        C718   1.404       .  A
C717        C722   1.397       .  A
C717        H724   1.084       .  S
C718        C719   1.405       .  A
C719        C720   1.392       .  A
C719        F726   1.358       .  S
C720        C721   1.400       .  A
C720        H725   1.084       .  S
C721        C722   1.403       .  A
C722        F723   1.357       .  S
C727        C728   1.404       .  A
C727        C732   1.401       .  A
C727        H734   1.083       .  S
C728        C729   1.404       .  A
C729        C730   1.387       .  A
C729        F736   1.359       .  S
C730        C731   1.400       .  A
C730        H735   1.084       .  S
C731        C732   1.403       .  A
C732        F733   1.357       .  S
C737        C738   1.401       .  A
C737        C742   1.388       .  A
C737        H744   1.084       .  S
C738        C739   1.400       .  A
C739        C740   1.398   1_455  A
C739        F746   1.358       .  S
C740       C1527   1.405       .  A
C740        H745   1.068       .  S
C741       C1526   1.405       .  A
C741       C1528   1.409       .  A
C742       C1527   1.409   1_455  A
C742       F1529   1.358   1_455  S
F743       C1528   1.358       .  S
C747        C748   1.399       .  A
C747        C752   1.398       .  A
C747        H754   1.081       .  S
C748        C749   1.411       .  A
C749        C750   1.411       .  A
C749        F756   1.356       .  S
C750        C751   1.407       .  A
C750        H755   1.079       .  S
C751        C752   1.415       .  A
C752        F753   1.357       .  S
C757       C1544   1.417       .  A
C757        C762   1.403   1_655  A
C757        H764   1.078       .  S
C758       C1543   1.417       .  A
C758        C759   1.418       .  A
C759       C1546   1.401       .  A
C759        F766   1.350       .  S
C760       C1545   1.401   1_455  A
C760        C761   1.404       .  A
C760        H765   1.079       .  S
C761        C762   1.406       .  A
C762        F763   1.356       .  S
C767        C768   1.401       .  A
C767        C772   1.388       .  A
C767        H774   1.080       .  S
C768        C769   1.404       .  A
C769        C770   1.404       .  A
C769        F776   1.357       .  S
C770        C771   1.405       .  A
C770        H775   1.066       .  S
C771        C772   1.410       .  A
C772        F773   1.358       .  S
C777        C778   1.410       .  A
C777        C782   1.405       .  A
C777        H784   1.076       .  S
C778        C779   1.423       .  A
C779        C780   1.397       .  A
C779        F786   1.356       .  S
C780        C781   1.398       .  A
C780        H785   1.084       .  S
C781        C782   1.406       .  A
C782        F783   1.353       .  S
N787        N794   1.427       .  S
N787       C1184   1.356       .  A
N787       C1181   1.361       .  A
C788       N1180   1.361       .  A
C788        C789   1.388       .  A
C788       C1171   1.515       .  S
C789        C790   1.372       .  A
C789        H792   1.082       .  S
C790        C791   1.381       .  A
C790        H793   1.083       .  S
C791       N1180   1.356       .  A
C791        C955   1.487       .  S
N794        C798   1.358       .  A
N794        C795   1.361       .  A
C795        C796   1.388       .  A
C795       C1164   1.492       .  S
C796        C797   1.374       .  A
C796        H799   1.083       .  S
C797        C798   1.380       .  A
C797        H800   1.083       .  S
C798        C856   1.487       .  S
N801        N808   1.423       .  S
N801        C805   1.349       .  A
N801        C802   1.366       .  A
C802        C803   1.393       .  A
C802       C1151   1.524       .  S
C803        C804   1.372       .  A
C804        C805   1.378       .  A
C804        H807   1.083   1_554  S
C805        C969   1.474       .  S
N808        C812   1.346       .  A
N808       C1202   1.363   1_545  A
C809       N1201   1.363       .  A
C809        C810   1.391       .  A
C809       C1144   1.504       .  S
C810       C1204   1.371       .  A
C810        H813   1.078       .  S
C811       C1203   1.371   1_545  A
C811        C812   1.377       .  A
C811        H814   1.083       .  S
C812        C855   1.456       .  S
N815        N822   1.446       .  S
N815        C819   1.381       .  A
N815        C816   1.368       .  A
C816        C817   1.381       .  A
C816       C1134   1.483       .  S
C817        C818   1.362       .  A
C817        H820   1.083       .  S
C818        C819   1.384       .  A
C818        H821   1.082       .  S
C819        C853   1.479       .  S
N822        C826   1.377       .  A
N822        C823   1.364       .  A
C823        C824   1.370       .  A
C823       C1121   1.464       .  S
C824        C825   1.351       .  A
C824        H827   1.079       .  S
C825        C826   1.391       .  A
C825        H828   1.083       .  S
C826        C970   1.501       .  S
C829        C830   1.419       .  A
C829        C834   1.424       .  A
C829       C1174   1.501       .  S
C830        C831   1.419       .  A
C830       C1141   1.508       .  S
C831        C832   1.418       .  A
C831       C1124   1.479       .  S
C832        C833   1.421       .  A
C832       C1161   1.489       .  S
C833        C834   1.423       .  A
C833       C1154   1.518       .  S
C834       C1131   1.476       .  S
O835        C851   1.286       .  A
O835       Zn841   2.091       .  S
C836        C883   1.474       .  S
C836        O852   1.272       .  A
C836        O849   1.281       .  A
O837        C850   1.273   1_545  A
O837       Cd844   2.029       .  S
O838        C856   1.283       .  A
O838       Cd847   2.110       .  S
O839        C853   1.275       .  A
O839       Cd843   2.060       .  S
O840        C851   1.273       .  A
O840       Cd843   2.050       .  S
Zn841       O852   1.975       .  S
Zn841       O854   2.097       .  S
Zn841       O846   1.956       .  S
O842        C853   1.286       .  A
O842       Cd847   2.130       .  S
Cd843       O845   2.048       .  S
Cd843       O846   1.968       .  S
Cd844       O848   2.057       .  S
Cd844       O857   2.079       .  S
Cd844       O846   1.964       .  S
O845        C855   1.268       .  A
O846       Cd847   1.990       .  S
Cd847       O849   2.116       .  S
O848        C855   1.274       .  A
C850       C1262   1.494       .  S
C850        O854   1.279   1_565  A
C851        C897   1.483       .  S
C856        O857   1.273       .  A
N858        N865   1.439       .  S
N858        C862   1.375       .  A
N858        C859   1.366       .  A
C859        C860   1.378       .  A
C859       C1111   1.467       .  S
C860        C861   1.355       .  A
C860        H863   1.083       .  S
C861        C862   1.388       .  A
C861        H864   1.083       .  S
C862        C978   1.494       .  S
N865        C869   1.379       .  A
N865        C866   1.373       .  A
C866        C867   1.382       .  A
C866       C1101   1.487       .  S
C867       C1261   1.348       .  A
C867        H870   1.080       .  S
C868       C1260   1.348       .  A
C868       C1262   1.383       .  A
C868        H871   1.081       .  S
C869       C1261   1.383       .  A
C869       C1243   1.493       .  S
N872        N879   1.445       .  S
N872        C876   1.366       .  A
N872        C873   1.373       .  A
C873        C874   1.389       .  A
C873       C1094   1.484       .  S
C874        C875   1.361       .  A
C874        H877   1.083       .  S
C875        C876   1.373       .  A
C875        H878   1.078       .  S
C876        C992   1.468       .  S
N879        C883   1.368       .  A
N879        C880   1.372       .  A
C880        C881   1.383       .  A
C880       C1081   1.479       .  S
C881        C882   1.355       .  A
C881        H884   1.083       .  S
C882        C883   1.378       .  A
C882        H885   1.079       .  S
N886        N893   1.427       .  S
N886        C887   1.363       .  A
C887       C1071   1.493       .  S
C888        C889   1.370       .  A
C888        H891   1.082       .  S
C889        C890   1.382       .  A
C889        H892   1.078       .  S
C890        C993   1.491       .  S
N893        C897   1.353       .  A
N893        C894   1.363   1_655  A
C894        C895   1.390       .  A
C894       C1064   1.506   1_455  S
C895        C896   1.373       .  A
C895        H898   1.083       .  S
C896        C897   1.379   1_455  A
C896        H899   1.083       .  S
C900        C901   1.400       .  A
C900        C905   1.411       .  A
C900       C1114   1.475       .  S
C901       C1454   1.491       .  S
C902        C903   1.427       .  A
C902       C1484   1.480       .  S
C903       C1104   1.505       .  S
C904        C905   1.424       .  A
C904       C1074   1.508       .  S
C905       C1084   1.487       .  S
N906        N913   1.425       .  S
N906        C910   1.367       .  A
N906        C907   1.366       .  A
C907        C908   1.382       .  A
C907       C1051   1.510       .  S
C908        C909   1.383       .  A
C908        H911   1.082       .  S
C909        C910   1.387       .  A
C909        H912   1.083       .  S
C910        C998   1.483       .  S
N913        C917   1.357       .  A
N913        C914   1.366       .  A
C914        C915   1.394       .  A
C914       C1044   1.525       .  S
C915        C916   1.376       .  A
C915        H918   1.077       .  S
C916        C917   1.378       .  A
C916        H919   1.083       .  S
C917        C974   1.481       .  S
N920        N927   1.432       .  S
N920        C924   1.361       .  A
N920        C921   1.366       .  A
C921        C922   1.391       .  A
C921       C1031   1.498       .  S
C922        C923   1.376       .  A
C922        H925   1.084       .  S
C923        C924   1.378       .  A
C923        H926   1.082       .  S
C924        C995   1.488       .  S
N927        C931   1.357       .  A
C928        C929   1.387       .  A
C928       C1024   1.503       .  S
C929        C930   1.367       .  A
C929        H932   1.068       .  S
C930        H933   1.083       .  S
N934        N941   1.426       .  S
N934        C938   1.356       .  A
N934        C935   1.366       .  A
C935        C936   1.382       .  A
C935       C1014   1.482       .  S
C936        C937   1.363       .  A
C936        H939   1.081       .  S
C937        C938   1.369       .  A
C937        H940   1.074   1_556  S
C938        C975   1.450       .  S
N941        C945   1.356       .  A
N941        C942   1.359       .  A
C942        C943   1.373       .  A
C943        C944   1.373       .  A
C944        C945   1.382       .  A
C944        H947   1.082       .  S
C945        C997   1.460       .  S
C948        C949   1.419       .  A
C948        C953   1.422       .  A
C948       C1054   1.527       .  S
C949        C950   1.432       .  A
C949       C1021   1.489       .  S
C950        C951   1.423       .  A
C950       C1004   1.491       .  S
C951        C952   1.432       .  A
C951       C1041   1.527       .  S
C952        C953   1.438       .  A
C952       C1034   1.500       .  S
C953       C1011   1.495       .  S
O954        C970   1.267       .  A
O954       Zn960   1.926       .  S
C955        O971   1.277       .  A
C955        O968   1.276   1_554  A
O956        C969   1.272   1_566  A
O956      Cd1356   2.047       .  S
O957        C975   1.263       .  A
O957      Cd1359   2.043   1_545  S
O958        C972   1.293   1_655  A
O958       Cd962   2.172       .  S
O959        C970   1.288       .  A
O959       Cd962   2.175   1_554  S
Zn960       O973   2.053       .  S
Zn960       O965   1.898   1_554  S
O961       Cd966   1.991       .  S
Cd962       O964   2.136       .  S
Cd962       O965   2.008       .  S
Cd963      O1349   2.048       .  S
Cd963       O967   2.045       .  S
Cd963       O965   1.983       .  S
O964        C974   1.287       .  A
Cd966      O1350   2.042       .  S
Cd966       O968   2.076       .  S
O967        C974   1.275       .  A
C969       O1366   1.281       .  A
O973       C1362   1.281       .  A
C975        O976   1.267       .  A
O977        C993   1.276       .  A
O977       Zn983   2.055       .  S
C978        O994   1.273       .  A
C978        O991   1.284       .  A
O979        C992   1.270       .  A
O979       Cd986   2.033       .  S
O980        C998   1.287       .  A
O980       Cd989   2.168       .  S
O981        C995   1.269       .  A
O981       Cd985   2.049       .  S
O982        C993   1.275       .  A
O982       Cd985   2.063       .  S
Zn983       O994   1.981       .  S
Zn983       O996   2.055       .  S
Zn983       O988   1.952       .  S
O984        C995   1.289       .  A
O984       Cd989   2.142       .  S
Cd985       O987   2.060       .  S
Cd985       O988   1.986       .  S
Cd986       O990   2.045       .  S
Cd986       O999   2.002       .  S
Cd986       O988   1.988       .  S
O987        C997   1.274       .  A
O988       Cd989   2.045       .  S
Cd989       O991   2.156       .  S
O990        C997   1.264       .  A
C992        O996   1.277       .  A
C998        O999   1.263       .  A
C1000      C1001   1.401       .  A
C1000      C1005   1.393       .  A
C1000      H1007   1.083   1_655  S
C1001      C1002   1.404       .  A
C1002      C1003   1.403       .  A
C1002      F1009   1.357       .  S
C1003      C1004   1.406       .  A
C1003      H1008   1.082       .  S
C1004      C1005   1.404       .  A
C1005      F1006   1.354       .  S
C1010      C1011   1.405       .  A
C1010      C1015   1.393       .  A
C1010      H1017   1.083       .  S
C1011      C1012   1.407       .  A
C1012      C1013   1.402       .  A
C1012      F1019   1.355       .  S
C1013      C1014   1.407       .  A
C1013      H1018   1.083       .  S
C1014      C1015   1.405       .  A
C1015      F1016   1.358       .  S
C1020      C1021   1.396       .  A
C1020      C1025   1.386       .  A
C1020      H1027   1.083       .  S
C1021      C1022   1.404       .  A
C1022      C1023   1.405       .  A
C1022      F1029   1.357       .  S
C1023      C1024   1.410   1_655  A
C1023      H1028   1.079       .  S
C1024      C1025   1.420   1_455  A
C1025      F1026   1.357   1_655  S
C1030      C1031   1.410       .  A
C1030      C1428   1.394       .  A
C1030      H1037   1.082       .  S
C1031      C1425   1.408       .  A
C1032      C1424   1.408   1_545  A
C1032      C1033   1.402       .  A
C1032      F1039   1.348       .  S
C1033      C1034   1.407       .  A
C1033      H1038   1.083       .  S
C1034      C1035   1.405       .  A
C1035      C1423   1.394   1_545  A
C1035      F1036   1.358       .  S
C1040      C1041   1.407       .  A
C1040      C1438   1.405   1_545  A
C1040      H1047   1.082       .  S
C1041      C1042   1.412       .  A
C1042      C1043   1.407   1_545  A
C1042      F1049   1.352       .  S
C1043      C1437   1.412       .  A
C1043      H1441   1.077       .  S
C1044      C1436   1.412       .  A
C1044      C1045   1.420       .  A
C1045      C1433   1.405       .  A
C1045      F1046   1.355       .  S
H1048      C1436   1.077       .  S
C1050      C1051   1.404       .  A
C1050      C1055   1.411       .  A
C1050      H1057   1.079       .  S
C1051      C1052   1.410       .  A
C1052      C1053   1.402       .  A
C1052      F1059   1.350       .  S
C1053      C1054   1.406       .  A
C1053      H1058   1.083       .  S
C1054      C1055   1.418       .  A
C1055      F1056   1.353       .  S
C1060      C1061   1.403       .  A
C1060      C1065   1.401       .  A
C1060      H1067   1.083       .  S
C1061      C1062   1.397       .  A
C1061      C1294   1.491   1_545  S
C1062      C1063   1.399   1_655  A
C1063      C1064   1.418   1_455  A
C1064      C1065   1.409       .  A
C1065      F1066   1.350       .  S
C1070      C1075   1.399       .  A
C1070      H1077   1.084       .  S
C1071      C1072   1.404       .  A
C1072      C1073   1.404       .  A
C1072      F1079   1.353       .  S
C1073      C1074   1.409       .  A
C1073      H1078   1.078       .  S
C1075      F1076   1.357       .  S
C1080      C1081   1.407       .  A
C1080      C1085   1.405       .  A
C1080      H1087   1.083       .  S
C1081      C1082   1.404       .  A
C1082      C1083   1.393       .  A
C1082      F1089   1.351       .  S
C1083      C1084   1.397       .  A
C1083      H1088   1.083       .  S
C1084      C1085   1.407       .  A
C1085      F1086   1.356       .  S
C1090      C1091   1.396       .  A
C1090      C1095   1.381       .  A
C1090      H1097   1.083       .  S
C1091      C1092   1.408       .  A
C1091      C1295   1.480   1_545  S
C1092      C1093   1.409       .  A
C1092      F1099   1.357       .  S
C1093      C1094   1.407       .  A
C1093      H1098   1.083       .  S
C1094      C1095   1.411       .  A
C1095      F1096   1.358       .  S
C1100      C1101   1.405       .  A
C1100      C1105   1.406       .  A
C1100      H1500   1.083       .  S
C1101      C1102   1.407       .  A
C1102      C1103   1.388       .  A
C1102      F1109   1.358       .  S
C1103      C1104   1.404       .  A
C1103      H1108   1.082       .  S
C1104      C1105   1.415       .  A
C1105      F1499   1.355       .  S
F1106      C1498   1.355       .  S
H1107      C1493   1.083       .  S
C1110      C1111   1.404       .  A
C1110      C1115   1.396       .  A
C1110      H1117   1.084       .  S
C1111      C1112   1.405       .  A
C1112      C1113   1.392       .  A
C1112      F1119   1.358       .  S
C1113      C1114   1.400       .  A
C1113      H1118   1.084       .  S
C1114      C1115   1.403       .  A
C1115      F1116   1.357       .  S
C1120      C1121   1.404       .  A
C1120      C1125   1.400       .  A
C1120      H1127   1.083       .  S
C1121      C1122   1.404       .  A
C1122      C1123   1.387       .  A
C1122      F1129   1.359       .  S
C1123      C1124   1.400       .  A
C1123      H1128   1.084       .  S
C1124      C1125   1.403       .  A
C1125      F1126   1.357       .  S
C1130      C1131   1.401       .  A
C1130      C1135   1.388       .  A
C1130      H1137   1.084       .  S
C1131      C1132   1.400       .  A
C1132      C1133   1.398       .  A
C1132      F1139   1.358       .  S
C1133      H1138   1.068       .  S
C1140      C1141   1.399       .  A
C1140      C1145   1.398       .  A
C1140      H1147   1.081       .  S
C1141      C1142   1.411       .  A
C1142      C1143   1.411       .  A
C1142      F1149   1.356       .  S
C1143      C1144   1.407       .  A
C1143      H1148   1.079       .  S
C1144      C1145   1.415       .  A
C1145      F1146   1.357       .  S
C1150      C1155   1.403       .  A
C1150      H1157   1.078       .  S
C1151      C1152   1.418       .  A
C1152      F1159   1.350       .  S
C1153      C1154   1.404       .  A
C1153      H1158   1.079       .  S
C1154      C1155   1.406       .  A
C1155      F1156   1.356       .  S
C1160      C1161   1.401       .  A
C1160      C1165   1.388       .  A
C1160      H1167   1.080       .  S
C1161      C1162   1.404       .  A
C1162      C1163   1.404       .  A
C1162      F1169   1.357       .  S
C1163      C1164   1.405       .  A
C1163      H1168   1.066       .  S
C1164      C1165   1.410       .  A
C1165      F1166   1.358       .  S
C1170      C1171   1.410       .  A
C1170      C1175   1.405       .  A
C1170      H1177   1.075       .  S
C1171      C1172   1.423       .  A
C1172      C1173   1.397       .  A
C1172      F1179   1.356       .  S
C1173      C1174   1.399       .  A
C1173      H1178   1.084       .  S
C1174      C1175   1.406       .  A
C1175      F1176   1.353       .  S
N1180      N1187   1.427       .  S
C1181      C1182   1.388       .  A
C1181      C1564   1.515   1_545  S
C1182      C1183   1.372       .  A
C1182      H1185   1.082       .  S
C1183      C1184   1.381       .  A
C1183      H1186   1.083       .  S
C1184      C1348   1.486       .  S
N1187      C1191   1.358       .  A
N1187      C1188   1.361       .  A
C1188      C1189   1.388       .  A
C1188      C1557   1.493       .  S
C1189      C1190   1.374       .  A
C1189      H1192   1.083       .  S
C1190      C1191   1.380       .  A
C1190      H1193   1.083       .  S
C1191      C1249   1.487       .  S
N1194      N1201   1.423       .  S
N1194      C1198   1.349       .  A
N1194      C1195   1.365       .  A
C1195      C1196   1.393       .  A
C1195      C1544   1.523       .  S
C1196      C1197   1.372       .  A
C1197      C1198   1.378       .  A
C1197      H1200   1.083   1_554  S
C1198      C1362   1.474       .  S
N1201      C1205   1.346       .  A
C1202      C1203   1.391       .  A
C1202      C1537   1.504       .  S
C1203      H1206   1.078       .  S
C1204      C1205   1.377       .  A
C1204      H1207   1.083       .  S
C1205      C1248   1.457       .  S
N1208      N1215   1.446       .  S
N1208      C1212   1.381       .  A
N1208      C1209   1.368       .  A
C1209      C1210   1.381       .  A
C1209      C1527   1.484       .  S
C1210      C1211   1.362       .  A
C1210      H1213   1.083       .  S
C1211      C1212   1.384       .  A
C1211      H1214   1.082       .  S
C1212      C1246   1.479       .  S
N1215      C1219   1.377       .  A
N1215      C1216   1.364       .  A
C1216      C1217   1.370       .  A
C1216      C1514   1.464       .  S
C1217      C1218   1.351       .  A
C1217      H1220   1.079       .  S
C1218      C1219   1.391       .  A
C1218      H1221   1.083       .  S
C1219      C1363   1.501       .  S
C1222      C1223   1.419       .  A
C1222      C1227   1.424       .  A
C1222      C1567   1.500       .  S
C1223      C1224   1.419       .  A
C1223      C1534   1.508       .  S
C1224      C1225   1.418       .  A
C1224      C1517   1.479       .  S
C1225      C1226   1.420       .  A
C1225      C1554   1.489       .  S
C1226      C1227   1.422       .  A
C1226      C1547   1.517       .  S
C1227      C1524   1.477       .  S
O1228      C1244   1.286       .  A
O1228     Zn1234   2.091       .  S
C1229      C1276   1.474       .  S
C1229      O1245   1.272       .  A
C1229      O1242   1.281       .  A
O1230      C1243   1.273       .  A
O1230     Cd1237   2.028       .  S
O1231      C1249   1.283       .  A
O1231     Cd1240   2.110       .  S
O1232      C1246   1.275       .  A
O1232     Cd1236   2.059       .  S
O1233      C1244   1.273       .  A
O1233     Cd1236   2.049       .  S
Zn1234     O1245   1.975       .  S
Zn1234     O1247   2.095       .  S
Zn1234     O1239   1.956       .  S
O1235      C1246   1.286       .  A
O1235     Cd1240   2.129       .  S
Cd1236     O1238   2.048       .  S
Cd1236     O1239   1.968       .  S
Cd1237     O1241   2.058       .  S
Cd1237     O1250   2.079       .  S
Cd1237     O1239   1.965       .  S
O1238      C1248   1.268       .  A
O1239     Cd1240   1.991       .  S
Cd1240     O1242   2.116       .  S
O1241      C1248   1.274       .  A
C1243      O1247   1.279       .  A
C1244      C1290   1.483       .  S
C1249      O1250   1.274       .  A
N1251      N1258   1.439       .  S
N1251      C1255   1.375       .  A
N1251      C1252   1.366       .  A
C1252      C1253   1.378       .  A
C1252      C1504   1.467       .  S
C1253      C1254   1.355       .  A
C1253      H1256   1.083       .  S
C1254      C1255   1.388       .  A
C1254      H1257   1.083       .  S
C1255      C1371   1.494       .  S
N1258      C1262   1.380       .  A
N1258      C1259   1.373       .  A
C1259      C1260   1.382       .  A
C1259      C1494   1.487       .  S
C1260      H1263   1.080       .  S
C1261      H1264   1.081       .  S
N1265      N1272   1.445       .  S
N1265      C1269   1.366       .  A
N1265      C1266   1.373       .  A
C1266      C1267   1.389       .  A
C1266      C1487   1.484       .  S
C1267      C1268   1.361       .  A
C1267      H1270   1.083       .  S
C1268      C1269   1.373       .  A
C1268      H1271   1.078       .  S
C1269      C1385   1.468       .  S
N1272      C1276   1.368       .  A
N1272      C1273   1.372       .  A
C1273      C1274   1.383       .  A
C1273      C1474   1.479       .  S
C1274      C1275   1.355       .  A
C1274      H1277   1.083       .  S
C1275      C1276   1.378       .  A
C1275      H1278   1.079       .  S
N1279      N1286   1.427       .  S
N1279      C1280   1.363       .  A
C1280      C1464   1.493       .  S
C1281      C1282   1.370       .  A
C1281      H1284   1.082       .  S
C1282      C1283   1.382       .  A
C1282      H1285   1.078       .  S
C1283      C1386   1.491       .  S
N1286      C1290   1.353       .  A
N1286      C1287   1.363   1_655  A
C1287      C1288   1.390       .  A
C1287      C1457   1.506   1_455  S
C1288      C1289   1.372       .  A
C1288      H1291   1.083       .  S
C1289      C1290   1.379   1_455  A
C1289      H1292   1.083       .  S
C1293      C1294   1.400       .  A
C1293      C1298   1.411       .  A
C1293      C1507   1.475       .  S
C1295      C1296   1.427       .  A
C1296      C1497   1.505       .  S
C1297      C1298   1.424       .  A
C1297      C1467   1.508       .  S
C1298      C1477   1.487       .  S
N1299      N1306   1.425       .  S
N1299      C1303   1.367       .  A
N1299      C1300   1.366       .  A
C1300      C1301   1.382       .  A
C1300      C1444   1.510       .  S
C1301      C1302   1.383       .  A
C1301      H1304   1.082       .  S
C1302      C1303   1.387       .  A
C1302      H1305   1.083       .  S
C1303      C1391   1.483       .  S
N1306      C1310   1.357       .  A
N1306      C1307   1.366       .  A
C1307      C1308   1.395       .  A
C1307      C1437   1.525       .  S
C1308      C1309   1.376       .  A
C1308      H1311   1.077       .  S
C1309      C1310   1.378       .  A
C1309      H1312   1.083       .  S
C1310      C1367   1.481       .  S
N1313      N1320   1.432       .  S
N1313      C1317   1.362       .  A
N1313      C1314   1.366       .  A
C1314      C1315   1.390       .  A
C1314      C1424   1.498       .  S
C1315      C1316   1.376       .  A
C1315      H1318   1.084       .  S
C1316      C1317   1.378       .  A
C1316      H1319   1.082       .  S
C1317      C1388   1.488       .  S
N1320      C1324   1.357       .  A
C1321      C1322   1.387       .  A
C1321      C1417   1.503       .  S
C1322      C1323   1.367       .  A
C1322      H1325   1.068       .  S
C1323      H1326   1.083       .  S
N1327      N1334   1.426       .  S
N1327      C1331   1.356       .  A
N1327      C1328   1.366       .  A
C1328      C1329   1.382       .  A
C1328      C1407   1.482       .  S
C1329      C1330   1.363       .  A
C1329      H1332   1.081       .  S
C1330      C1331   1.369       .  A
C1330      H1333   1.074   1_556  S
C1331      C1368   1.450       .  S
N1334      C1338   1.356       .  A
N1334      C1335   1.359       .  A
C1335      C1336   1.373       .  A
C1336      C1337   1.373       .  A
C1337      C1338   1.381       .  A
C1337      H1340   1.081       .  S
C1338      C1390   1.460       .  S
C1341      C1342   1.419       .  A
C1341      C1346   1.422       .  A
C1341      C1447   1.527       .  S
C1342      C1343   1.432       .  A
C1342      C1414   1.489       .  S
C1343      C1344   1.423       .  A
C1343      C1397   1.490       .  S
C1344      C1345   1.432       .  A
C1344      C1434   1.528       .  S
C1345      C1346   1.438       .  A
C1345      C1427   1.500       .  S
C1346      C1404   1.495       .  S
O1347      C1363   1.267       .  A
O1347     Zn1353   1.927       .  S
C1348      O1364   1.277       .  A
C1348      O1361   1.276   1_554  A
O1349      C1362   1.272   1_556  A
O1350      C1368   1.263       .  A
O1351      C1365   1.293   1_655  A
O1351     Cd1355   2.171       .  S
O1352      C1363   1.287       .  A
O1352     Cd1355   2.174   1_554  S
Zn1353     O1366   2.054   1_565  S
Zn1353     O1358   1.898   1_554  S
O1354     Cd1359   1.992       .  S
Cd1355     O1357   2.136       .  S
Cd1355     O1358   2.008       .  S
Cd1356     O1360   2.044       .  S
Cd1356     O1358   1.983       .  S
O1357      C1367   1.287       .  A
Cd1359     O1361   2.076   1_565  S
O1360      C1367   1.275       .  A
C1368      O1369   1.267       .  A
O1370      C1386   1.276       .  A
O1370     Zn1376   2.055       .  S
C1371      O1387   1.273       .  A
C1371      O1384   1.284       .  A
O1372      C1385   1.270       .  A
O1372     Cd1379   2.034       .  S
O1373      C1391   1.287       .  A
O1373     Cd1382   2.168       .  S
O1374      C1388   1.269       .  A
O1374     Cd1378   2.049       .  S
O1375      C1386   1.275       .  A
O1375     Cd1378   2.063       .  S
Zn1376     O1387   1.981       .  S
Zn1376     O1389   2.054       .  S
Zn1376     O1381   1.952       .  S
O1377      C1388   1.289       .  A
O1377     Cd1382   2.142       .  S
Cd1378     O1380   2.059       .  S
Cd1378     O1381   1.986       .  S
Cd1379     O1383   2.045       .  S
Cd1379     O1392   2.002       .  S
Cd1379     O1381   1.988       .  S
O1380      C1390   1.273       .  A
O1381     Cd1382   2.045       .  S
Cd1382     O1384   2.156       .  S
O1383      C1390   1.264       .  A
C1385      O1389   1.277       .  A
C1391      O1392   1.263       .  A
C1393      C1394   1.401       .  A
C1393      C1398   1.392       .  A
C1393      H1400   1.083   1_655  S
C1394      C1395   1.404       .  A
C1395      C1396   1.403       .  A
C1395      F1402   1.357       .  S
C1396      C1397   1.406       .  A
C1396      H1401   1.082       .  S
C1397      C1398   1.404       .  A
C1398      F1399   1.354       .  S
C1403      C1404   1.405       .  A
C1403      C1408   1.393       .  A
C1403      H1410   1.083       .  S
C1404      C1405   1.407       .  A
C1405      C1406   1.402       .  A
C1405      F1412   1.355       .  S
C1406      C1407   1.407       .  A
C1406      H1411   1.083       .  S
C1407      C1408   1.405       .  A
C1408      F1409   1.358       .  S
C1413      C1414   1.396       .  A
C1413      C1418   1.386       .  A
C1413      H1420   1.083       .  S
C1414      C1415   1.404       .  A
C1415      C1416   1.405       .  A
C1415      F1422   1.357       .  S
C1416      C1417   1.410   1_655  A
C1416      H1421   1.079       .  S
C1417      C1418   1.420   1_455  A
C1418      F1419   1.357   1_655  S
C1423      C1424   1.410       .  A
C1423      H1430   1.082       .  S
C1425      C1426   1.402       .  A
C1425      F1432   1.348       .  S
C1426      C1427   1.407       .  A
C1426      H1431   1.083       .  S
C1427      C1428   1.405       .  A
C1428      F1429   1.358       .  S
C1433      C1434   1.408       .  A
C1433      H1440   1.082       .  S
C1434      C1435   1.412       .  A
C1435      C1436   1.407       .  A
C1435      F1442   1.352       .  S
C1437      C1438   1.420       .  A
C1438      F1439   1.354       .  S
C1443      C1444   1.404       .  A
C1443      C1448   1.411       .  A
C1443      H1450   1.079       .  S
C1444      C1445   1.410       .  A
C1445      C1446   1.402       .  A
C1445      F1452   1.350       .  S
C1446      C1447   1.406       .  A
C1446      H1451   1.083       .  S
C1447      C1448   1.418       .  A
C1448      F1449   1.353       .  S
C1453      C1454   1.402       .  A
C1453      C1458   1.400       .  A
C1453      H1460   1.083       .  S
C1454      C1455   1.397       .  A
C1455      C1456   1.399   1_655  A
C1456      C1457   1.418   1_455  A
C1457      C1458   1.409       .  A
C1458      F1459   1.350       .  S
C1463      C1468   1.399       .  A
C1463      H1470   1.084       .  S
C1464      C1465   1.404       .  A
C1465      C1466   1.403       .  A
C1465      F1472   1.353       .  S
C1466      C1467   1.409       .  A
C1466      H1471   1.078       .  S
C1468      F1469   1.357       .  S
C1473      C1474   1.407       .  A
C1473      C1478   1.405       .  A
C1473      H1480   1.083       .  S
C1474      C1475   1.404       .  A
C1475      C1476   1.393       .  A
C1475      F1482   1.351       .  S
C1476      C1477   1.397       .  A
C1476      H1481   1.082       .  S
C1477      C1478   1.407       .  A
C1478      F1479   1.356       .  S
C1483      C1484   1.396       .  A
C1483      C1488   1.381       .  A
C1483      H1490   1.083       .  S
C1484      C1485   1.408       .  A
C1485      C1486   1.409       .  A
C1485      F1492   1.357       .  S
C1486      C1487   1.407       .  A
C1486      H1491   1.083       .  S
C1487      C1488   1.411       .  A
C1488      F1489   1.358       .  S
C1493      C1494   1.405       .  A
C1493      C1498   1.406       .  A
C1494      C1495   1.407       .  A
C1495      C1496   1.388       .  A
C1495      F1502   1.358       .  S
C1496      C1497   1.405       .  A
C1496      H1501   1.082       .  S
C1497      C1498   1.415       .  A
C1503      C1504   1.404       .  A
C1503      C1508   1.397       .  A
C1503      H1510   1.084       .  S
C1504      C1505   1.405       .  A
C1505      C1506   1.392       .  A
C1505      F1512   1.358       .  S
C1506      C1507   1.400       .  A
C1506      H1511   1.084       .  S
C1507      C1508   1.403       .  A
C1508      F1509   1.357       .  S
C1513      C1514   1.404       .  A
C1513      C1518   1.401       .  A
C1513      H1520   1.083       .  S
C1514      C1515   1.404       .  A
C1515      C1516   1.387       .  A
C1515      F1522   1.359       .  S
C1516      C1517   1.400       .  A
C1516      H1521   1.084       .  S
C1517      C1518   1.403       .  A
C1518      F1519   1.357       .  S
C1523      C1524   1.401       .  A
C1523      C1528   1.388       .  A
C1523      H1530   1.084       .  S
C1524      C1525   1.400       .  A
C1525      C1526   1.398       .  A
C1525      F1532   1.358       .  S
C1526      H1531   1.068       .  S
C1533      C1534   1.399       .  A
C1533      C1538   1.398       .  A
C1533      H1540   1.081       .  S
C1534      C1535   1.411       .  A
C1535      C1536   1.411       .  A
C1535      F1542   1.356       .  S
C1536      C1537   1.407       .  A
C1536      H1541   1.079       .  S
C1537      C1538   1.415       .  A
C1538      F1539   1.357       .  S
C1543      C1548   1.403       .  A
C1543      H1550   1.078       .  S
C1544      C1545   1.418       .  A
C1545      F1552   1.350       .  S
C1546      C1547   1.404       .  A
C1546      H1551   1.079       .  S
C1547      C1548   1.406       .  A
C1548      F1549   1.356       .  S
C1553      C1554   1.401       .  A
C1553      C1558   1.388       .  A
C1553      H1560   1.080       .  S
C1554      C1555   1.404       .  A
C1555      C1556   1.404       .  A
C1555      F1562   1.357       .  S
C1556      C1557   1.405       .  A
C1556      H1561   1.066       .  S
C1557      C1558   1.410       .  A
C1558      F1559   1.358       .  S
C1563      C1564   1.410       .  A
C1563      C1568   1.405       .  A
C1563      H1570   1.076       .  S
C1564      C1565   1.423       .  A
C1565      C1566   1.397       .  A
C1565      F1572   1.356       .  S
C1566      C1567   1.398       .  A
C1566      H1571   1.084       .  S
C1567      C1568   1.406       .  A
C1568      F1569   1.353       .  S
