geometry optimzed in LAMMPS
_audit_creation_date              2020-11-30 
_audit_creation_method            'lammps2cif' 
_symmetry_space_group_name_H-M    'P1' 
_symmetry_Int_Tables_number       1 
_symmetry_cell_setting            triclinic 
loop_ 
_symmetry_equiv_pos_as_xyz 
  x,y,z 
_cell_length_a                    45.47612038 
_cell_length_b                    45.7334624728784 
_cell_length_c                    34.07425824204226 
_cell_angle_alpha                 89.92659872183984 
_cell_angle_beta                  90.08294655111604 
_cell_angle_gamma                 120.11791901179757 
loop_ 
_atom_site_label 
_atom_site_type_symbol 
_atom_site_fract_x 
_atom_site_fract_y 
_atom_site_fract_z 
_atom_site_charge 
C1          C  0.32917855  0.66270455  0.21498474     0.45900
H2          H  0.32860878  0.66191500  0.18255151    -0.03200
C3          C  0.33022578  0.66398882  0.29076866     0.45900
H4          H  0.33074589  0.66454863  0.32321617    -0.03200
C5          C  0.34820157  0.64536034  0.23283991    -0.16900
C6          C  0.34731626  0.69948798  0.23147655    -0.16600
C7          C  0.29279176  0.64435774  0.23303002    -0.17000
C8          C  0.34817516  0.64536378  0.27355718    -0.17000
C9          C  0.34851126  0.70020349  0.27229045    -0.16500
C10         C  0.29328508  0.64554789  0.27377773    -0.16900
C11         C  0.16204318  0.37900395  0.72302288     0.02700
C12         C  0.16736986  0.38197383  0.76428326     0.02700
C13         C  0.19472112  0.37978458  0.77962724    -0.17900
C14         C  0.22020679  0.38121850  0.75525059     0.02700
C15         C  0.21525118  0.37891337  0.71387247     0.02700
C16         C  0.18445034  0.37433874  0.69914848    -0.17900
H17         H  0.18003417  0.37162591  0.66774783     0.04700
H18         H  0.19845374  0.38127467  0.81116251     0.04700
C19         C  0.16190379  0.77871034  0.76881584     0.02700
C20         C  0.16437530  0.78226544  0.72732857     0.02700
C21         C  0.19119883  0.81185282  0.71141994    -0.17900
C22         C  0.21805081  0.83490814  0.73509459     0.02700
C23         C  0.21554472  0.83120387  0.77644382     0.02700
C24         C  0.18619056  0.80446429  0.79260314    -0.17900
H25         H  0.18416756  0.80158150  0.82425979     0.04700
H26         H  0.19322825  0.81502337  0.67981071     0.04700
C27         C  0.78398469  0.61904483  0.23036235     0.02700
C28         C  0.79145225  0.62344630  0.27112343     0.02700
C29         C  0.82306231  0.62887925  0.28406443    -0.17900
C30         C  0.84476626  0.62447023  0.25871641     0.02700
C31         C  0.83695707  0.61966965  0.21808133     0.02700
C32         C  0.80773753  0.61909374  0.20434308    -0.17900
H33         H  0.80183890  0.61541525  0.17322292     0.04700
H34         H  0.82901767  0.63257343  0.31514969     0.04700
O35         O  0.05518006  0.48654995  0.94677028    -0.78100
C36         C  0.03949477  0.57051062  0.93173939     0.83000
O37         O  0.04961562  0.52468404  0.07847886    -0.79200
O38         O  0.96401461  0.54048237  0.01662102    -0.80700
O39         O  0.93086632  0.43626324  0.94556892    -0.80500
O40         O  0.00617059  0.43720557  0.94581513    -0.79100
Zn41       Zn  0.04757239  0.51863931  0.97950777     1.55700
O42         O  0.93247296  0.48564458  0.94224631    -0.80500
Cd43       Cd  0.97415040  0.44745866  0.97878746     1.59700
Cd44       Cd  0.00065534  0.49866795  0.05493507     1.59600
O45         O  0.95777952  0.41606483  0.02726601    -0.80500
O46         O  0.00038825  0.49567636  0.99644095    -1.91000
Cd47       Cd  0.97632848  0.51786290  0.97339586     1.59900
O48         O  0.97809673  0.45090515  0.07847622    -0.80500
O49         O  0.00770055  0.55634925  0.93749183    -0.79100
C50         C  0.07863898  0.53628466  0.06230310     0.83400
C51         C  0.03729585  0.45578868  0.93614640     0.83100
O52         O  0.05771995  0.55933440  0.94648950    -0.78100
C53         C  0.91826830  0.45426818  0.93414739     0.83900
O54         O  0.08137282  0.53498479  0.02517051    -0.78200
C55         C  0.96189049  0.42123952  0.06414174     0.84000
C56         C  0.96288832  0.53871700  0.05379538     0.84300
O57         O  0.97391423  0.52203023  0.07258049    -0.80600
O58         O  0.04843587  0.56176435  0.55726105    -0.78100
C59         C  0.03223111  0.45914779  0.56209087     0.83000
O60         O  0.04847563  0.52423759  0.42306083    -0.79200
O61         O  0.95399816  0.42159804  0.47253366    -0.80700
O62         O  0.92441357  0.48919148  0.55087162    -0.80500
O63         O  0.99889572  0.56111712  0.55671761    -0.79100
Zn64       Zn  0.04214607  0.52356781  0.52202916     1.55700
O65         O  0.92685421  0.44188406  0.55429438    -0.80500
Cd66       Cd  0.96875498  0.52216313  0.51989610     1.59700
Cd67       Cd  0.99878647  0.50302710  0.44385727     1.59600
O68         O  0.95806224  0.54458786  0.47321240    -0.80500
O69         O  0.99563585  0.50079889  0.50220258    -1.91000
Cd70       Cd  0.96979080  0.45291734  0.52058314     1.59900
O71         O  0.98063594  0.53294410  0.42281179    -0.80500
O72         O  0.00096851  0.44153423  0.55284214    -0.79100
C73         C  0.07687499  0.54049435  0.44090693     0.83400
C74         C  0.02964274  0.57374517  0.56772590     0.83100
O75         O  0.05040486  0.49021343  0.55253860    -0.78100
C76         C  0.91230891  0.45877878  0.56274810     0.83900
O77         O  0.07814100  0.54329390  0.47824659    -0.78200
C78         C  0.96553248  0.54753578  0.43689291     0.84000
C79         C  0.95433050  0.42618869  0.43563286     0.84300
O80         O  0.96925806  0.45560415  0.42047479    -0.80600
C81         C  0.83085583  0.21415656  0.23053360     0.02700
C82         C  0.83099075  0.21605605  0.27207529     0.02700
C83         C  0.80771406  0.18788146  0.29373804    -0.17900
C84         C  0.78055968  0.16010516  0.27535747     0.02700
C85         C  0.78029525  0.15817704  0.23372003     0.02700
C86         C  0.80694819  0.18410861  0.21233660    -0.17900
H87         H  0.80686637  0.18244276  0.18059746     0.04700
H88         H  0.80828507  0.18936247  0.32551088     0.04700
C89         C  0.39836460  0.17211177  0.22100683     0.02700
C90         C  0.40668072  0.17919789  0.26113429     0.02700
C91         C  0.40857754  0.20793065  0.27740985    -0.17900
C92         C  0.40243960  0.23001771  0.25497245     0.02700
C93         C  0.39301811  0.22272961  0.21470330     0.02700
C94         C  0.38988832  0.19285184  0.19888705    -0.17900
H95         H  0.38281527  0.18667655  0.16833539     0.04700
H96         H  0.41590328  0.21371154  0.30802292     0.04700
C97         C  0.62219679  0.83710793  0.75724984     0.02700
C98         C  0.62446238  0.83320525  0.71628869     0.02700
C99         C  0.62955862  0.80723666  0.70283566    -0.17900
C100        C  0.62698797  0.78199821  0.72837119     0.02700
C101        C  0.62402007  0.78545997  0.76939151     0.02700
C102        C  0.62473059  0.81464735  0.78318819    -0.17900
H103        H  0.62310074  0.81774493  0.81427100     0.04700
H104        H  0.63149393  0.80442580  0.67176814     0.04700
O105        O  0.50889339  0.94294723  0.55320945    -0.78100
C106        C  0.42289183  0.95748418  0.56705507     0.83000
O107        O  0.46813057  0.94395351  0.42243204    -0.79200
O108        O  0.45685085  0.03573208  0.47537489    -0.80700
O109        O  0.55572735  0.06606586  0.55547970    -0.80500
O110        O  0.55702079  0.99301232  0.55513736    -0.79100
Zn111      Zn  0.47551917  0.94920340  0.52113996     1.55700
O112        O  0.50591744  0.06396429  0.55616764    -0.80500
Cd113      Cd  0.54580447  0.02362259  0.52160514     1.59700
Cd114      Cd  0.49568751  0.99300815  0.44463279     1.59600
O115        O  0.57830464  0.03828855  0.47378459    -0.80500
O116        O  0.49757383  0.99596244  0.50305814    -1.91000
Cd117      Cd  0.47461989  0.02062556  0.52250260     1.59900
O118        O  0.54393409  0.01056565  0.42394432    -0.80500
O119        O  0.43460122  0.98821240  0.55712911    -0.79100
C120        C  0.45699499  0.91551331  0.43949606     0.83400
C121        C  0.53964157  0.96177949  0.56391558     0.83100
O122        O  0.43575823  0.93988030  0.55534810    -0.78100
C123        C  0.53715176  0.07823500  0.56629902     0.83900
O124        O  0.45874631  0.91385700  0.47676229    -0.78200
C125        C  0.57359149  0.02891595  0.43796029     0.84000
C126        C  0.46159893  0.03661870  0.43842031     0.84300
O127        O  0.47688731  0.02266890  0.42256003    -0.80600
O128        O  0.44359649  0.49666146  0.55016352    -0.78100
C129        C  0.55059488  0.57897109  0.56175038     0.83000
O130        O  0.47710753  0.52803787  0.41921487    -0.79200
O131        O  0.58632524  0.53787702  0.47110473    -0.80700
O132        O  0.50955742  0.44231590  0.55240637    -0.80500
O133        O  0.43896467  0.44588294  0.54393864    -0.79100
Zn134      Zn  0.48512239  0.52891724  0.51821322     1.55700
O135        O  0.56103413  0.48758725  0.55092227    -0.80500
Cd136      Cd  0.48194053  0.45546650  0.51467831     1.59700
Cd137      Cd  0.50559845  0.50703585  0.43967516     1.59600
O138        O  0.46883346  0.42443116  0.46614514    -0.80500
O139        O  0.50613963  0.50380166  0.49813136    -1.91000
Cd140      Cd  0.55354028  0.52197558  0.51788463     1.59900
O141        O  0.48541736  0.45979588  0.41499849    -0.80500
O142        O  0.56662024  0.56387595  0.55205699    -0.79100
C143        C  0.46458957  0.54372342  0.43711826     0.83400
C144        C  0.42786050  0.46478176  0.55625885     0.83100
O145        O  0.51989377  0.56843508  0.55118357    -0.78100
C146        C  0.54070079  0.45753372  0.56264742     0.83900
O147        O  0.46726097  0.54721014  0.47438268    -0.78200
C148        C  0.47212795  0.43014415  0.42933723     0.84000
C149        C  0.58328452  0.54332868  0.43507412     0.84300
O150        O  0.55470805  0.53526819  0.41952252    -0.80600
O151        O  0.43745831  0.94344286  0.94523376    -0.78100
C152        C  0.53597059  0.95596132  0.92756069     0.83000
O153        O  0.47517475  0.93858663  0.07588505    -0.79200
O154        O  0.58310734  0.02863825  0.02206158    -0.80700
O155        O  0.51381788  0.06562809  0.95319204    -0.80500
O156        O  0.43924872  0.99312422  0.94870555    -0.79100
Zn157      Zn  0.47608022  0.94708694  0.97745318     1.55700
O158        O  0.56147206  0.06363821  0.94770226    -0.80500
Cd159      Cd  0.48145660  0.02127553  0.98311812     1.59700
Cd160      Cd  0.50190276  0.98866736  0.05683377     1.59600
O161        O  0.46605394  0.03546749  0.03215698    -0.80500
O162        O  0.50193805  0.99303708  0.99823105    -1.91000
Cd163      Cd  0.54922178  0.01785482  0.97644788     1.59900
O164        O  0.47690668  0.01124986  0.08231333    -0.80500
O165        O  0.55529739  0.98677426  0.93733247    -0.79100
C166        C  0.45759271  0.91070988  0.05770029     0.83400
C167        C  0.42575671  0.96276561  0.93659834     0.83100
O168        O  0.50595658  0.93816355  0.94122680    -0.78100
C169        C  0.54441161  0.07848969  0.94148637     0.83900
O170        O  0.45552547  0.91004711  0.02026878    -0.78200
C171        C  0.46471166  0.02887201  0.06855992     0.84000
C172        C  0.58055734  0.02558044  0.05930931     0.84300
O173        O  0.55184249  0.01148757  0.07682556    -0.80600
O174        O  0.50978201  0.56746139  0.94740322    -0.78100
C175        C  0.42391046  0.46658165  0.93156860     0.83000
O176        O  0.47652643  0.53389425  0.07816589    -0.79200
O177        O  0.45273230  0.42261257  0.02679006    -0.80700
O178        O  0.55770518  0.49164521  0.95222308    -0.80500
O179        O  0.55809892  0.56574383  0.94778112    -0.79100
Zn180      Zn  0.47565403  0.52758738  0.97948687     1.55700
O181        O  0.50776318  0.44383629  0.95002724    -0.80500
Cd182      Cd  0.54658284  0.52485050  0.98300250     1.59700
Cd183      Cd  0.49574554  0.50415128  0.05795607     1.59600
O184        O  0.57796154  0.54347326  0.03159947    -0.80500
O185        O  0.49786092  0.50338040  0.99945305    -1.91000
Cd186      Cd  0.47475883  0.45561293  0.97993760     1.59900
O187        O  0.54343486  0.52235193  0.08287079    -0.80500
O188        O  0.43613480  0.44796060  0.94162347    -0.79100
C189        C  0.46089687  0.54676734  0.06078931     0.83400
C190        C  0.54072646  0.57925050  0.93737165     0.83100
O191        O  0.43608131  0.49674680  0.94417678    -0.78100
C192        C  0.53935821  0.46083241  0.94154241     0.83900
O193        O  0.45782139  0.54546670  0.02346247    -0.78200
C194        C  0.57326533  0.53903431  0.06848537     0.84000
C195        C  0.44942193  0.42688934  0.06318782     0.84300
O196        O  0.46314879  0.45621394  0.07844263    -0.80600
C197        C  0.66093647  0.32956693  0.71711426     0.45900
H198        H  0.66015519  0.32876168  0.68465220    -0.03200
C199        C  0.66258367  0.33135854  0.79297624     0.45900
H200        H  0.66340261  0.33224294  0.82544793    -0.03200
C201        C  0.64278477  0.34790650  0.73462789    -0.16900
C202        C  0.64318433  0.29344744  0.73573346    -0.16600
C203        C  0.69799046  0.34868130  0.73361669    -0.17000
C204        C  0.64388304  0.34916739  0.77538040    -0.17000
C205        C  0.64389678  0.29445001  0.77655383    -0.16500
C206        C  0.69878946  0.34921536  0.77428134    -0.16900
C207        C  0.62938077  0.36646443  0.80112452     0.01700
C208        C  0.60704919  0.34902434  0.83306228     0.04600
C209        C  0.59241376  0.36440142  0.85566872    -0.11500
C210        C  0.60019510  0.39769241  0.84789155     0.23900
C211        C  0.62292710  0.41571662  0.81735883    -0.12100
C212        C  0.63773737  0.40060955  0.79451403     0.05300
C213        C  0.58461720  0.41383069  0.87210026     0.27700
C214        C  0.55557750  0.41431645  0.85852753    -0.12800
C215        C  0.54105907  0.42978447  0.88103102     0.05800
C216        C  0.55491581  0.44443159  0.91790293    -0.08700
C217        C  0.58356496  0.44317926  0.93184675     0.06600
C218        C  0.59854036  0.42833717  0.90890171    -0.13100
Br219      Br  0.63402933  0.46176421  0.80747904    -0.05200
Br220      Br  0.59381439  0.30318724  0.84605409     0.00500
Br221      Br  0.50292224  0.43200488  0.86018825     0.00900
Br222      Br  0.63813397  0.42755651  0.92787277    -0.03500
Br223      Br  0.67226061  0.42917092  0.75761309     0.01000
Br224      Br  0.56057477  0.33959132  0.89724028    -0.02800
Br225      Br  0.53554539  0.39341905  0.80898635    -0.03700
Br226      Br  0.60102798  0.45964733  0.98354459     0.00300
C227        C  0.55991764  0.11117634  0.91937572     0.01700
C228        C  0.57158074  0.11302230  0.88056957     0.04600
C229        C  0.58450027  0.14322124  0.85872183    -0.11500
C230        C  0.58514678  0.17185813  0.87492827     0.23900
C231        C  0.57338067  0.17020055  0.91365466    -0.12100
C232        C  0.56118156  0.14015826  0.93592393     0.05300
C233        C  0.59924060  0.20387645  0.85147871     0.27700
C234        C  0.63301602  0.22968637  0.85709385    -0.12800
C235        C  0.64705919  0.25944877  0.83415028     0.05800
C236        C  0.62792942  0.26344274  0.80347188    -0.08700
C237        C  0.59325596  0.23761217  0.79936642     0.06600
C238        C  0.57928913  0.20815242  0.82297878    -0.13100
Br239      Br  0.57383651  0.20919005  0.93591794    -0.05200
Br240      Br  0.56785694  0.07356557  0.85602561     0.00500
Br241      Br  0.69324045  0.29305007  0.84536440     0.00900
Br242      Br  0.53233907  0.17326348  0.81681384    -0.03500
Br243      Br  0.54744329  0.13920733  0.98968056     0.01000
Br244      Br  0.60138184  0.14550206  0.80623557    -0.02800
Br245      Br  0.66046721  0.22328602  0.89583042    -0.03700
Br246      Br  0.56276737  0.24326071  0.76515537     0.00300
C247        C  0.62556388  0.36215389  0.70865199     0.01700
C248        C  0.64276995  0.38318518  0.67574849     0.04600
C249        C  0.62688582  0.39650443  0.65195808    -0.11500
C250        C  0.59438027  0.39070529  0.66133018     0.23900
C251        C  0.57673456  0.36969722  0.69317892    -0.12100
C252        C  0.59147230  0.35435179  0.71562792     0.05300
C253        C  0.57902226  0.40700558  0.63745579     0.27700
C254        C  0.58847569  0.44090235  0.64444541    -0.12800
C255        C  0.57630557  0.45741572  0.61997735     0.05800
C256        C  0.55350728  0.43986984  0.58879455    -0.08700
C257        C  0.54311641  0.40526640  0.58296122     0.06600
C258        C  0.55637010  0.38923893  0.60668627    -0.13100
Br259      Br  0.53186273  0.36175904  0.70541731    -0.05200
Br260      Br  0.68902630  0.39695501  0.66300783     0.00500
Br261      Br  0.59046614  0.50385148  0.63089591     0.00900
Br262      Br  0.54439739  0.34300796  0.59656639    -0.03500
Br263      Br  0.56224692  0.31931231  0.75161552     0.01000
Br264      Br  0.64960717  0.42317245  0.60592083    -0.02800
Br265      Br  0.61831823  0.46459671  0.68795525    -0.03700
Br266      Br  0.51172667  0.37937282  0.54175985     0.00300
C267        C  0.55234136  0.10976959  0.59114882     0.01700
C268        C  0.53509453  0.11201000  0.62470013     0.04600
C269        C  0.54991722  0.14136675  0.64847840    -0.11500
C270        C  0.58190159  0.16923225  0.63890051     0.23900
C271        C  0.59898891  0.16742059  0.60528610    -0.12100
C272        C  0.58447268  0.13797303  0.58165938     0.05300
C273        C  0.59735340  0.20065858  0.66378374     0.27700
C274        C  0.58886645  0.22586330  0.65722411    -0.12800
C275        C  0.60377039  0.25581521  0.67998934     0.05800
C276        C  0.62746860  0.26118854  0.71060712    -0.08700
C277        C  0.63642796  0.23568815  0.71601690     0.06600
C278        C  0.62110561  0.20568880  0.69326627    -0.13100
Br279      Br  0.64239666  0.20582927  0.59151098    -0.05200
Br280      Br  0.49156303  0.07464356  0.63959831     0.00500
Br281      Br  0.58929330  0.28780984  0.66880299     0.00900
Br282      Br  0.63297041  0.17110368  0.70168316    -0.03500
Br283      Br  0.60817722  0.13747667  0.53493477     0.01000
Br284      Br  0.52666354  0.14356801  0.69479734    -0.02800
Br285      Br  0.55618931  0.21878427  0.61659120    -0.03700
Br286      Br  0.67253465  0.24228298  0.75078786     0.00300
C287        C  0.62222964  0.75065426  0.70955462     0.01700
C288        C  0.64882529  0.75157907  0.68698683     0.04600
C289        C  0.64249506  0.72393511  0.66308163    -0.11500
C290        C  0.60958057  0.69563498  0.66117575     0.23900
C291        C  0.58328497  0.69427923  0.68414752    -0.12100
C292        C  0.58926588  0.72201939  0.70728920     0.05300
C293        C  0.60104233  0.66805221  0.63290755     0.27700
C294        C  0.58973044  0.66998810  0.59495945    -0.12800
C295        C  0.57417092  0.64103109  0.57106082     0.05800
C296        C  0.56850458  0.60981396  0.58582870    -0.08700
C297        C  0.58050679  0.60825060  0.62351010     0.06600
C298        C  0.59793734  0.63760084  0.64635928    -0.13100
Br299      Br  0.53818594  0.65494031  0.68168559    -0.05200
Br300      Br  0.69309380  0.79194668  0.68545305     0.00500
Br301      Br  0.56052323  0.64410728  0.51827325     0.00900
Br302      Br  0.61586485  0.63602576  0.69721371    -0.03500
Br303      Br  0.55061168  0.72233739  0.72972311     0.01000
Br304      Br  0.67827604  0.72518353  0.63152689    -0.02800
Br305      Br  0.59382161  0.71187278  0.57681680    -0.03700
Br306      Br  0.56925493  0.56541320  0.64611346     0.00300
C307        C  0.55628048  0.94622909  0.58497725     0.01700
C308        C  0.57434274  0.93414403  0.56339164     0.04600
C309        C  0.58920745  0.91772591  0.58276945    -0.11500
C310        C  0.58495284  0.91241594  0.62353049     0.23900
C311        C  0.56664373  0.92428507  0.64508931    -0.12100
C312        C  0.55277919  0.94178348  0.62587385     0.05300
C313        C  0.59737553  0.89202422  0.64328882     0.27700
C314        C  0.57727299  0.85660563  0.64270567    -0.12800
C315        C  0.58788349  0.83696903  0.66329643     0.05800
C316        C  0.61748997  0.85302916  0.68698527    -0.08700
C317        C  0.63939274  0.88819705  0.68368099     0.06600
C318        C  0.62907742  0.90780836  0.66237236    -0.13100
Br319      Br  0.55908488  0.91481425  0.70041553    -0.05200
Br320      Br  0.57712819  0.93858500  0.50699575     0.00500
Br321      Br  0.56142045  0.78830600  0.65812140     0.00900
Br322      Br  0.65788724  0.95623533  0.65967675    -0.03500
Br323      Br  0.52857653  0.95914142  0.65518637     0.01000
Br324      Br  0.61426746  0.90131376  0.55347571    -0.02800
Br325      Br  0.53434680  0.83516080  0.61504639    -0.03700
Br326      Br  0.68483343  0.90880005  0.70434116     0.00300
C327        C  0.61606154  0.75766823  0.79790477     0.01700
C328        C  0.63904379  0.74584612  0.80388693     0.04600
C329        C  0.62938911  0.71668999  0.82657113    -0.11500
C330        C  0.59726268  0.70005414  0.84458535     0.23900
C331        C  0.57540696  0.71332431  0.84156052    -0.12100
C332        C  0.58499948  0.74251057  0.81918923     0.05300
C333        C  0.58633867  0.66903366  0.86787125     0.27700
C334        C  0.56883850  0.63721074  0.84943229    -0.12800
C335        C  0.55458450  0.60761122  0.87222825     0.05800
C336        C  0.55723996  0.60995221  0.91337932    -0.08700
C337        C  0.57543783  0.64170465  0.93176062     0.06600
C338        C  0.59029016  0.67127743  0.90895827    -0.13100
Br339      Br  0.53174233  0.69073840  0.86764569    -0.05200
Br340      Br  0.68504651  0.77169351  0.78524734     0.00500
Br341      Br  0.53103496  0.56383353  0.84739292     0.00900
Br342      Br  0.61503183  0.71497780  0.93384368    -0.03500
Br343      Br  0.55476314  0.76080738  0.81872314     0.01000
Br344      Br  0.65997672  0.69937027  0.83322005    -0.02800
Br345      Br  0.56327873  0.63441711  0.79316412    -0.03700
Br346      Br  0.57897823  0.64457995  0.98823328     0.00300
C347        C  0.61226322  0.86070075  0.77462489     0.01700
C348        C  0.63535916  0.88735563  0.79910450     0.04600
C349        C  0.62421788  0.90577393  0.82149109    -0.11500
C350        C  0.58995662  0.89738482  0.81996569     0.23900
C351        C  0.56708744  0.87159144  0.79489307    -0.12100
C352        C  0.57790971  0.85271220  0.77307498     0.05300
C353        C  0.57688957  0.91292699  0.84781680     0.27700
C354        C  0.56308117  0.89690231  0.88396849    -0.12800
C355        C  0.54942124  0.91078470  0.91005053     0.05800
C356        C  0.54903560  0.94047034  0.89969953    -0.08700
C357        C  0.56214109  0.95588858  0.86302096     0.06600
C358        C  0.57671390  0.94258094  0.83752833    -0.13100
Br359      Br  0.52015420  0.86066566  0.79283805    -0.05200
Br360      Br  0.68139059  0.89645739  0.80544802     0.00500
Br361      Br  0.53237117  0.88965040  0.96041418     0.00900
Br362      Br  0.59662116  0.96493625  0.78855632    -0.03500
Br363      Br  0.54393722  0.81274435  0.74670807     0.01000
Br364      Br  0.65520175  0.94119347  0.85625307    -0.02800
Br365      Br  0.56311286  0.85592885  0.89763575    -0.03700
Br366      Br  0.55779146  0.99361716  0.84607028     0.00300
C367        C  0.38964374  0.24724712  0.18819150     0.01700
C368        C  0.36614414  0.25806461  0.19672198     0.04600
C369        C  0.36854674  0.28657030  0.17762456    -0.11500
C370        C  0.39294229  0.30297612  0.14807170     0.23900
C371        C  0.41310288  0.28950717  0.13562138    -0.12100
C372        C  0.41127434  0.26160574  0.15513271     0.05300
C373        C  0.40016494  0.33591811  0.13164505     0.27700
C374        C  0.38606881  0.33735350  0.09545537    -0.12800
C375        C  0.40055926  0.36788469  0.07422411     0.05800
C376        C  0.42998821  0.39683416  0.08869975    -0.08700
C377        C  0.44190525  0.39595252  0.12692429     0.06600
C378        C  0.42663565  0.36559063  0.14831439    -0.13100
Br379      Br  0.44496187  0.31096148  0.09287415    -0.05200
Br380      Br  0.32832204  0.23181047  0.23091774     0.00500
Br381      Br  0.37958996  0.36969511  0.02561634     0.00900
Br382      Br  0.44383642  0.36356070  0.19935814    -0.03500
Br383      Br  0.43940975  0.24470713  0.13537255     0.01000
Br384      Br  0.33936500  0.30395887  0.19246717    -0.02800
Br385      Br  0.34847050  0.29674918  0.07401851    -0.03700
Br386      Br  0.48118363  0.43475234  0.14945646     0.00300
C387        C  0.40868101  0.26123626  0.27525894     0.01700
C388        C  0.38838355  0.25864969  0.30805409     0.04600
C389        C  0.39782993  0.28677710  0.33227665    -0.11500
C390        C  0.42765638  0.31745223  0.32419644     0.23900
C391        C  0.44826202  0.32008760  0.29208287    -0.12100
C392        C  0.43906524  0.29191126  0.26793679     0.05300
C393        C  0.43875014  0.34625401  0.35127431     0.27700
C394        C  0.42480813  0.36754783  0.34814856    -0.12800
C395        C  0.43532739  0.39484047  0.37415112     0.05800
C396        C  0.46062276  0.40142679  0.40236199    -0.08700
C397        C  0.47529564  0.38070225  0.40452873     0.06600
C398        C  0.46360965  0.35250364  0.37986864    -0.13100
Br399      Br  0.49058573  0.36168771  0.28342976    -0.05200
Br400      Br  0.34941319  0.21576537  0.32260159     0.00500
Br401      Br  0.41447400  0.42259013  0.37175912     0.00900
Br402      Br  0.48159928  0.32236422  0.38516705    -0.03500
Br403      Br  0.47082935  0.29416441  0.22893217     0.01000
Br404      Br  0.37150619  0.28271199  0.37853610    -0.02800
Br405      Br  0.39147146  0.35921581  0.30806496    -0.03700
Br406      Br  0.51341560  0.39257798  0.43877675     0.00300
C407        C  0.44998374  0.05543165  0.41337038     0.01700
C408        C  0.43449152  0.04230480  0.37655596     0.04600
C409        C  0.42577710  0.06142382  0.35177298    -0.11500
C410        C  0.43194348  0.09341235  0.36378791     0.23900
C411        C  0.44598691  0.10601355  0.40102989    -0.12100
C412        C  0.45543631  0.08739451  0.42560426     0.05300
C413        C  0.42512063  0.11464516  0.33668579     0.27700
C414        C  0.45231879  0.14135531  0.31647317    -0.12800
C415        C  0.44663952  0.16362132  0.29365125     0.05800
C416        C  0.41320600  0.15702654  0.28722047    -0.08700
C417        C  0.38630691  0.13145123  0.30926587     0.06600
C418        C  0.39223274  0.11016744  0.33378765    -0.13100
Br419      Br  0.45284149  0.14934102  0.41791317    -0.05200
Br420      Br  0.42394822  0.99773208  0.36004298     0.00500
Br421      Br  0.48506091  0.20609597  0.27814253     0.00900
Br422      Br  0.35576041  0.07575860  0.36475663    -0.03500
Br423      Br  0.47816734  0.10751520  0.47459214     0.01000
Br424      Br  0.40567804  0.04415211  0.30098711    -0.02800
Br425      Br  0.49760614  0.14796934  0.32106171    -0.03700
Br426      Br  0.34259294  0.12870720  0.31046966     0.00300
C427        C  0.44842381  0.04227560  0.09514009     0.01700
C428        C  0.46081200  0.05281372  0.13378798     0.04600
C429        C  0.44660063  0.06768059  0.15746841    -0.11500
C430        C  0.42212475  0.07463553  0.14179839     0.23900
C431        C  0.40920419  0.06370939  0.10387346    -0.12100
C432        C  0.42127169  0.04640030  0.08114613     0.05300
C433        C  0.41506198  0.09890021  0.16207779     0.27700
C434        C  0.38386926  0.08831249  0.18113365    -0.12800
C435        C  0.37742681  0.11246811  0.19838275     0.05800
C436        C  0.40347240  0.14660432  0.20022558    -0.08700
C437        C  0.43471883  0.15690569  0.18112633     0.06600
C438        C  0.43984500  0.13335993  0.16069246    -0.13100
Br439      Br  0.37707463  0.07518708  0.08176080    -0.05200
Br440      Br  0.49991985  0.05130382  0.15351763     0.00500
Br441      Br  0.33227355  0.09917241  0.21596050     0.00900
Br442      Br  0.48055743  0.14843577  0.12954963    -0.03500
Br443      Br  0.39986833  0.02878250  0.03091124     0.01000
Br444      Br  0.46261092  0.08145679  0.21054799    -0.02800
Br445      Br  0.35016313  0.04091855  0.18327765    -0.03700
Br446      Br  0.47101931  0.20314529  0.18204676     0.00300
C447        C  0.60330919  0.03975336  0.41166252     0.01700
C448        C  0.60129123  0.04676322  0.37141018     0.04600
C449        C  0.63033501  0.05955736  0.34759125    -0.11500
C450        C  0.66167238  0.06701320  0.36397394     0.23900
C451        C  0.66343780  0.05788269  0.40289406    -0.12100
C452        C  0.63421057  0.04360732  0.42656251     0.05300
C453        C  0.69320257  0.09030421  0.34288708     0.27700
C454        C  0.71073821  0.07820766  0.32045077    -0.12800
C455        C  0.74048723  0.10113762  0.30029973     0.05800
C456        C  0.75137003  0.13602817  0.30023102    -0.08700
C457        C  0.73430680  0.14808266  0.32451907     0.06600
C458        C  0.70544798  0.12518793  0.34572584    -0.13100
Br459      Br  0.70655767  0.06679336  0.42412647    -0.05200
Br460      Br  0.56028201  0.04239341  0.34853196     0.00500
Br461      Br  0.76810247  0.08493399  0.27692571     0.00900
Br462      Br  0.68199053  0.14148459  0.37862377    -0.03500
Br463      Br  0.63722029  0.02906305  0.47895898     0.01000
Br464      Br  0.62818817  0.06920445  0.29276575    -0.02800
Br465      Br  0.69366477  0.03024163  0.31728090    -0.03700
Br466      Br  0.74911021  0.19571739  0.32938220     0.00300
C467        C  0.61215565  0.04021922  0.08292389     0.01700
C468        C  0.63863147  0.07354645  0.07520663     0.04600
C469        C  0.66786253  0.08826775  0.09886562    -0.11500
C470        C  0.66992073  0.07070796  0.13173086     0.23900
C471        C  0.64416859  0.03731729  0.13905524    -0.12100
C472        C  0.61573781  0.02177498  0.11408050     0.05300
C473        C  0.69676634  0.08933987  0.16118852     0.27700
C474        C  0.72746837  0.08893295  0.16010515    -0.12800
C475        C  0.75448245  0.11049137  0.18492596     0.05800
C476        C  0.75073581  0.13258096  0.21086124    -0.08700
C477        C  0.72020164  0.13360665  0.21050972     0.06600
C478        C  0.69281142  0.11090528  0.18723951    -0.13100
Br479      Br  0.64735456  0.01371622  0.18444418    -0.05200
Br480      Br  0.63386005  0.10079625  0.03504755     0.00500
Br481      Br  0.79741297  0.11157987  0.18074815     0.00900
Br482      Br  0.65021766  0.11074737  0.18897144    -0.03500
Br483      Br  0.58253846  0.97503491  0.12225106     0.01000
Br484      Br  0.70458226  0.13341743  0.08776630    -0.02800
Br485      Br  0.73284716  0.06004651  0.12315299    -0.03700
Br486      Br  0.71743014  0.16989750  0.23544271     0.00300
C487        C  0.93647277  0.39632514  0.40984929     0.01700
C488        C  0.90508395  0.36842656  0.42200703     0.04600
C489        C  0.88880272  0.33943888  0.39845070    -0.11500
C490        C  0.90330790  0.33835201  0.36250329     0.23900
C491        C  0.93374980  0.36626494  0.34950558    -0.12100
C492        C  0.95056055  0.39520715  0.37315707     0.05300
C493        C  0.88611901  0.30776262  0.33809936     0.27700
C494        C  0.89356467  0.28165606  0.34328740    -0.12800
C495        C  0.87596638  0.25176223  0.32134570     0.05800
C496        C  0.85108564  0.24819514  0.29380834    -0.08700
C497        C  0.84237367  0.27376522  0.29070756     0.06600
C498        C  0.86069473  0.30394575  0.31175922    -0.13100
Br499      Br  0.95215703  0.36441721  0.29908399    -0.05200
Br500      Br  0.88275844  0.36986986  0.46971553     0.00500
Br501      Br  0.88448113  0.21506268  0.33135783     0.00900
Br502      Br  0.85010466  0.33971812  0.30602090    -0.03500
Br503      Br  0.99351586  0.43215823  0.35520619     0.01000
Br504      Br  0.84627198  0.30102510  0.41504132    -0.02800
Br505      Br  0.92707869  0.28666621  0.38162786    -0.03700
Br506      Br  0.80218691  0.26597765  0.26294643     0.00300
C507        C  0.72950782  0.36566757  0.70725517     0.01700
C508        C  0.73432645  0.34762936  0.67617386     0.04600
C509        C  0.76405507  0.36307651  0.65281068    -0.11500
C510        C  0.78940903  0.39681740  0.65931155     0.23900
C511        C  0.78474028  0.41532679  0.68906499    -0.12100
C512        C  0.75490122  0.40032500  0.71221377     0.05300
C513        C  0.82092797  0.41290621  0.63457235     0.27700
C514        C  0.84996937  0.41173960  0.64656684    -0.12800
C515        C  0.87962548  0.42656255  0.62319315     0.05800
C516        C  0.88067994  0.44275960  0.58731771    -0.08700
C517        C  0.85139151  0.44381359  0.57536952     0.06600
C518        C  0.82179439  0.42908555  0.59894953    -0.13100
Br519      Br  0.81958954  0.46184731  0.69744910    -0.05200
Br520      Br  0.70174853  0.30112717  0.66525227     0.00500
Br521      Br  0.91923155  0.42591945  0.64183893     0.00900
Br522      Br  0.78209843  0.43085254  0.58256391    -0.03500
Br523      Br  0.74795283  0.42978630  0.74621973     0.01000
Br524      Br  0.77083203  0.33789008  0.61180698    -0.02800
Br525      Br  0.84893490  0.38988210  0.69550424    -0.03700
Br526      Br  0.85092075  0.46383116  0.52564162     0.00300
C527        C  0.94716022  0.39197573  0.09126047     0.01700
C528        C  0.94785539  0.36221364  0.08160906     0.04600
C529        C  0.93156451  0.33365732  0.10600263    -0.11500
C530        C  0.91611893  0.33519422  0.14106985     0.23900
C531        C  0.91750358  0.36542648  0.15227277    -0.12100
C532        C  0.93185421  0.39340466  0.12688149     0.05300
C533        C  0.89470460  0.30393386  0.16355234     0.27700
C534        C  0.85929905  0.28674193  0.15782876    -0.12800
C535        C  0.83836815  0.25688155  0.17863464     0.05800
C536        C  0.85298030  0.24395894  0.20545785    -0.08700
C537        C  0.88873240  0.25986002  0.20836308     0.06600
C538        C  0.90945931  0.29055694  0.18882571    -0.13100
Br539      Br  0.89835245  0.36773511  0.20196578    -0.05200
Br540      Br  0.97161565  0.36013228  0.03564994     0.00500
Br541      Br  0.78983901  0.23432267  0.16911482     0.00900
Br542      Br  0.95805466  0.31446103  0.19663137    -0.03500
Br543      Br  0.92699348  0.43194921  0.13979497     0.01000
Br544      Br  0.92908746  0.29180732  0.09070203    -0.02800
Br545      Br  0.83952770  0.30440216  0.12116006    -0.03700
Br546      Br  0.90963167  0.23756730  0.23443453     0.00300
C547        C  0.88616125  0.43841656  0.91099509     0.01700
C548        C  0.88568529  0.44954205  0.87244139     0.04600
C549        C  0.85509920  0.43521546  0.85082651    -0.11500
C550        C  0.82473989  0.40925688  0.86731690     0.23900
C551        C  0.82514444  0.39796824  0.90577787    -0.12100
C552        C  0.85565789  0.41267893  0.92765048     0.05300
C553        C  0.79249548  0.39370092  0.84405545     0.27700
C554        C  0.76843208  0.40393698  0.85001206    -0.12800
C555        C  0.73759448  0.38874321  0.82869780     0.05800
C556        C  0.73119309  0.36439853  0.79889288    -0.08700
C557        C  0.75578005  0.35413168  0.79359468     0.06600
C558        C  0.78585104  0.36845408  0.81626907    -0.13100
Br559      Br  0.78372382  0.36224349  0.92835249    -0.05200
Br560      Br  0.92722657  0.48349085  0.84846516     0.00500
Br561      Br  0.70571484  0.40341160  0.84053029     0.00900
Br562      Br  0.81802754  0.35287388  0.81037686    -0.03500
Br563      Br  0.85532077  0.39870193  0.98117155     0.01000
Br564      Br  0.85457943  0.45114602  0.79849328    -0.02800
Br565      Br  0.77852716  0.43971888  0.88714759    -0.03700
Br566      Br  0.74765170  0.31762658  0.75905757     0.00300
C567        C  0.87131495  0.61919384  0.27751645     0.01700
C568        C  0.90047890  0.64673386  0.29445400     0.04600
C569        C  0.92220441  0.64094441  0.31871522    -0.11500
C570        C  0.91377977  0.60764046  0.32800338     0.23900
C571        C  0.88485290  0.58019644  0.31126088    -0.12100
C572        C  0.86385742  0.58587913  0.28604329     0.05300
C573        C  0.93355970  0.60041442  0.35711726     0.27700
C574        C  0.95556639  0.58945424  0.34400049    -0.12800
C575        C  0.96684194  0.57308557  0.36978099     0.05800
C576        C  0.95645764  0.56805109  0.41006495    -0.08700
C577        C  0.93690075  0.58259064  0.42372283     0.06600
C578        C  0.92543245  0.59835876  0.39711358    -0.13100
Br579      Br  0.87266779  0.53441786  0.32531985    -0.05200
Br580      Br  0.90889199  0.69216921  0.28804229     0.00500
Br581      Br  0.99573029  0.55755453  0.34705157     0.00900
Br582      Br  0.89676547  0.61580610  0.41472468    -0.03500
Br583      Br  0.82270069  0.54723478  0.26792816     0.01000
Br584      Br  0.96271086  0.67833913  0.34068185    -0.02800
Br585      Br  0.96852847  0.59547704  0.28942643    -0.03700
Br586      Br  0.92392246  0.58100776  0.47815329     0.00300
C587        C  0.85704081  0.61243125  0.18973119     0.01700
C588        C  0.84383541  0.57945912  0.17452838     0.04600
C589        C  0.86511385  0.57129981  0.15357246    -0.11500
C590        C  0.89748145  0.59710853  0.14176829     0.23900
C591        C  0.90869655  0.63098799  0.15159312    -0.12100
C592        C  0.88860305  0.63860384  0.17609612     0.05300
C593        C  0.91836053  0.58806200  0.11723409     0.27700
C594        C  0.94463052  0.58484670  0.13442212    -0.12800
C595        C  0.96012146  0.56984068  0.11339364     0.05800
C596        C  0.94822778  0.55659814  0.07532892    -0.08700
C597        C  0.92229848  0.56099537  0.05776956     0.06600
C598        C  0.90851420  0.57788930  0.07828517    -0.13100
Br599      Br  0.95107530  0.66666366  0.13089074    -0.05200
Br600      Br  0.79585966  0.54644076  0.17691267     0.00500
Br601      Br  0.99781154  0.56840983  0.13761683     0.00900
Br602      Br  0.87468358  0.58587183  0.05401864    -0.03500
Br603      Br  0.90181714  0.68500619  0.18611780     0.01000
Br604      Br  0.85004185  0.52451954  0.14168294    -0.02800
Br605      Br  0.95845051  0.60009810  0.18748683    -0.03700
Br606      Br  0.90228525  0.54133820  0.00746257     0.00300
C607        C  0.76511558  0.61776428  0.30078534     0.01700
C608        C  0.75373730  0.59071949  0.32805142     0.04600
C609        C  0.72464686  0.58149622  0.35064552    -0.11500
C610        C  0.70633717  0.59841320  0.34540783     0.23900
C611        C  0.71879090  0.62668839  0.32059401    -0.12100
C612        C  0.74926755  0.63749759  0.30013666     0.05300
C613        C  0.67412849  0.58637406  0.36658005     0.27700
C614        C  0.64430791  0.55844965  0.35203375    -0.12800
C615        C  0.61430216  0.54448698  0.37417651     0.05800
C616        C  0.61400611  0.55912209  0.41055784    -0.08700
C617        C  0.64373751  0.58796475  0.42432100     0.06600
C618        C  0.67390990  0.60120076  0.40257913    -0.13100
Br619      Br  0.69341244  0.64973571  0.31368016    -0.05200
Br620      Br  0.77639231  0.56492712  0.33476131     0.00500
Br621      Br  0.57471181  0.50374598  0.35576846     0.00900
Br622      Br  0.71543307  0.63880352  0.42262666    -0.03500
Br623      Br  0.77118161  0.68116653  0.27543542     0.01000
Br624      Br  0.70895824  0.54486753  0.38812826    -0.02800
Br625      Br  0.64518391  0.53861374  0.30241741    -0.03700
Br626      Br  0.64327876  0.61013220  0.47237333     0.00300
C627        C  0.75045738  0.61051760  0.21366020     0.01700
C628        C  0.74775673  0.63393301  0.18897763     0.04600
C629        C  0.71690268  0.62473435  0.16989256    -0.11500
C630        C  0.68945753  0.59145440  0.17305193     0.23900
C631        C  0.69224912  0.56780016  0.19682415    -0.12100
C632        C  0.72265448  0.57724149  0.21708254     0.05300
C633        C  0.66006566  0.57964947  0.14620782     0.27700
C634        C  0.62998630  0.57837006  0.15851406    -0.12800
C635        C  0.60176159  0.56574822  0.13306147     0.05800
C636        C  0.60335161  0.55356296  0.09520051    -0.08700
C637        C  0.63414420  0.55547644  0.08306880     0.06600
C638        C  0.66223198  0.56850225  0.10849975    -0.13100
Br639      Br  0.65532347  0.52153451  0.19832743    -0.05200
Br640      Br  0.78727524  0.67728052  0.17744779     0.00500
Br641      Br  0.56209042  0.56738501  0.15015267     0.00900
Br642      Br  0.70394215  0.57040520  0.09222813    -0.03500
Br643      Br  0.72755199  0.54296867  0.24433270     0.01000
Br644      Br  0.71277940  0.65686749  0.13699073    -0.02800
Br645      Br  0.62780461  0.59383754  0.21056818    -0.03700
Br646      Br  0.63871745  0.53929947  0.03241698     0.00300
C647        C  0.25014687  0.85876816  0.71513553     0.01700
C648        C  0.27719218  0.85193571  0.71462488     0.04600
C649        C  0.30685937  0.87294491  0.69366018    -0.11500
C650        C  0.30878395  0.89944359  0.67089262     0.23900
C651        C  0.28186598  0.90622021  0.67064725    -0.12100
C652        C  0.25224493  0.88553939  0.69225310     0.05300
C653        C  0.33709963  0.91652997  0.64306962     0.27700
C654        C  0.36851235  0.94314412  0.65603172    -0.12800
C655        C  0.39709498  0.95502769  0.63178367     0.05800
C656        C  0.39366078  0.94221485  0.59348336    -0.08700
C657        C  0.36205293  0.91604796  0.58012563     0.06600
C658        C  0.33382714  0.90280288  0.60521703    -0.13100
Br659      Br  0.28528629  0.94290787  0.63923886    -0.05200
Br660      Br  0.27195578  0.81067293  0.73618869     0.00500
Br661      Br  0.44149171  0.98605416  0.65241311     0.00900
Br662      Br  0.29087652  0.86518967  0.58838458    -0.03500
Br663      Br  0.21343292  0.89171035  0.68679574     0.01000
Br664      Br  0.34421676  0.86404408  0.69372103    -0.02800
Br665      Br  0.37228094  0.96279419  0.70711306    -0.03700
Br666      Br  0.35748811  0.89832012  0.52770536     0.00300
C667        C  0.04431574  0.60427744  0.59196624     0.01700
C668        C  0.05600908  0.60391514  0.63011023     0.04600
C669        C  0.07204768  0.63390661  0.65205584    -0.11500
C670        C  0.07649590  0.66418651  0.63572926     0.23900
C671        C  0.06370596  0.66428801  0.59812816    -0.12100
C672        C  0.04748160  0.63427248  0.57625390     0.05300
C673        C  0.09858822  0.69642355  0.65598755     0.27700
C674        C  0.08470716  0.71174405  0.67939979    -0.12800
C675        C  0.10640181  0.74150203  0.70007530     0.05800
C676        C  0.14185104  0.75434700  0.70011260    -0.08700
C677        C  0.15569689  0.74025746  0.67387777     0.06600
C678        C  0.13396694  0.71156977  0.65171249    -0.13100
Br679      Br  0.07036272  0.70598070  0.57578488    -0.05200
Br680      Br  0.04999838  0.56238244  0.65219085     0.00500
Br681      Br  0.08781464  0.76683649  0.72369008     0.00900
Br682      Br  0.15243100  0.69240685  0.61542194    -0.03500
Br683      Br  0.03186279  0.63484120  0.52361302     0.01000
Br684      Br  0.08954519  0.63411690  0.70374971    -0.02800
Br685      Br  0.03604272  0.69175453  0.68316187    -0.03700
Br686      Br  0.20414545  0.75914828  0.66733188     0.00300
C687        C  0.24442783  0.85265363  0.80300235     0.01700
C688        C  0.25627223  0.88757124  0.80615449     0.04600
C689        C  0.28647342  0.90864478  0.82664155    -0.11500
C690        C  0.30414469  0.89461848  0.84526879     0.23900
C691        C  0.29090108  0.85948014  0.84514768    -0.12100
C692        C  0.26061151  0.83834294  0.82501408     0.05300
C693        C  0.33572118  0.91625380  0.86717544     0.27700
C694        C  0.36741118  0.92641738  0.84955661    -0.12800
C695        C  0.39725588  0.94306226  0.87202963     0.05800
C696        C  0.39524464  0.94910629  0.91214068    -0.08700
C697        C  0.36364441  0.93956393  0.92955674     0.06600
C698        C  0.33385478  0.92330027  0.90699482    -0.13100
Br699      Br  0.31466749  0.84045554  0.87265200    -0.05200
Br700      Br  0.22900663  0.90582696  0.78690916     0.00500
Br701      Br  0.44083830  0.95683934  0.84833250     0.00900
Br702      Br  0.29021625  0.90855063  0.93108401    -0.03500
Br703      Br  0.24150803  0.78997862  0.82964338     0.01000
Br704      Br  0.30364878  0.95664688  0.82962755    -0.02800
Br705      Br  0.36952225  0.91547665  0.79541146    -0.03700
Br706      Br  0.36086673  0.94610031  0.98499906     0.00300
C707        C  0.13850281  0.74671154  0.78899817     0.01700
C708        C  0.11319328  0.74513470  0.81445019     0.04600
C709        C  0.09387376  0.71618228  0.83744420    -0.11500
C710        C  0.10157846  0.69004042  0.83731708     0.23900
C711        C  0.12774094  0.69213295  0.81350836    -0.12100
C712        C  0.14606729  0.72027499  0.78923452     0.05300
C713        C  0.08326003  0.66052867  0.86310850     0.27700
C714        C  0.09462526  0.66164653  0.90184590    -0.12800
C715        C  0.08029339  0.63202081  0.92449612     0.05800
C716        C  0.05538612  0.60124442  0.90785925    -0.08700
C717        C  0.04376946  0.60037739  0.86929638     0.06600
C718        C  0.05721212  0.63018181  0.84723571    -0.13100
Br719      Br  0.13969627  0.65709211  0.81615045    -0.05200
Br720      Br  0.10733079  0.78382137  0.82140895     0.00500
Br721      Br  0.09386000  0.63386534  0.97860822     0.00900
Br722      Br  0.04059368  0.62962490  0.79493147    -0.03500
Br723      Br  0.18442133  0.72407255  0.76085487     0.06200
Br724      Br  0.05760236  0.71256053  0.87016212    -0.02800
Br725      Br  0.13025153  0.70360590  0.92337879    -0.03700
Br726      Br  0.01109200  0.55810902  0.84566580     0.00300
C727        C  0.24265783  0.38519617  0.68515035     0.01700
C728        C  0.25844759  0.36534162  0.68576047     0.04600
C729        C  0.28808423  0.37519435  0.66369775    -0.11500
C730        C  0.29983251  0.40269963  0.63774395     0.23900
C731        C  0.28102189  0.41902392  0.63210729    -0.12100
C732        C  0.25323927  0.41129685  0.65651301     0.05300
C733        C  0.33318175  0.41658040  0.61829685     0.27700
C734        C  0.36140508  0.44531451  0.63445552    -0.12800
C735        C  0.39246428  0.46133025  0.61419356     0.05800
C736        C  0.39527666  0.44864408  0.57753798    -0.08700
C737        C  0.36690945  0.41966973  0.56148770     0.06600
C738        C  0.33597221  0.40358078  0.58202072    -0.13100
Br739      Br  0.29433142  0.45278007  0.59125675    -0.05200
Br740      Br  0.23761895  0.32271408  0.71279183     0.00500
Br741      Br  0.43119590  0.49993136  0.63751573     0.00900
Br742      Br  0.29696802  0.36445071  0.55999561    -0.03500
Br743      Br  0.23198405  0.43860678  0.65082106     0.01000
Br744      Br  0.31300625  0.35157320  0.66940523    -0.02800
Br745      Br  0.35705208  0.46301056  0.68420778    -0.03700
Br746      Br  0.36939905  0.40311687  0.51009964     0.00300
C747        C  0.25285879  0.39025682  0.77501322     0.01700
C748        C  0.25409888  0.36749642  0.80229015     0.04600
C749        C  0.28276581  0.37803163  0.82650205    -0.11500
C750        C  0.30938212  0.41185848  0.82546971     0.23900
C751        C  0.30800902  0.43478466  0.79898576    -0.12100
C752        C  0.27998199  0.42406819  0.77375519     0.05300
C753        C  0.33819090  0.42408212  0.85344389     0.27700
C754        C  0.33445109  0.43215889  0.89240241    -0.12800
C755        C  0.36250993  0.44594551  0.91809070     0.05800
C756        C  0.39454123  0.45251800  0.90460075    -0.08700
C757        C  0.39830157  0.44498358  0.86547821     0.06600
C758        C  0.37003893  0.43002492  0.84023795    -0.13100
Br759      Br  0.34365589  0.48167149  0.79939289    -0.05200
Br760      Br  0.21516112  0.32284720  0.80970654     0.00500
Br761      Br  0.35705505  0.45546346  0.97190506     0.00900
Br762      Br  0.37482825  0.41802213  0.78726040    -0.03500
Br763      Br  0.27712416  0.45736338  0.74181876     0.01000
Br764      Br  0.28510251  0.34656864  0.86238154    -0.02800
Br765      Br  0.29104941  0.42497273  0.91026180    -0.03700
Br766      Br  0.44264085  0.45770239  0.84545698     0.00300
C767        C  0.04783653  0.44277856  0.58425328     0.01700
C768        C  0.03646763  0.43060434  0.62248034     0.04600
C769        C  0.05158175  0.41535662  0.64387896    -0.11500
C770        C  0.07854482  0.41285063  0.62740915     0.23900
C771        C  0.08916865  0.42383467  0.58865594    -0.12100
C772        C  0.07372010  0.43871428  0.56699675     0.05300
C773        C  0.09869648  0.40328574  0.65283263     0.27700
C774        C  0.12572475  0.42863682  0.67454750    -0.12800
C775        C  0.14537460  0.42038867  0.69889779     0.05800
C776        C  0.13776186  0.38646264  0.70231774    -0.08700
C777        C  0.11124407  0.36123343  0.67923447     0.06600
C778        C  0.09131331  0.36958233  0.65520384    -0.13100
Br779      Br  0.12554180  0.41934728  0.56593690    -0.05200
Br780      Br  0.00205787  0.43711100  0.64682107     0.00500
Br781      Br  0.18541061  0.45678570  0.72269873     0.00900
Br782      Br  0.05457399  0.33530496  0.62441643    -0.03500
Br783      Br  0.08772172  0.45321810  0.51363375     0.01000
Br784      Br  0.03645960  0.39900595  0.69646624    -0.02800
Br785      Br  0.13674294  0.47518513  0.66923251    -0.03700
Br786      Br  0.10394036  0.31584580  0.67748907     0.00300
C787        C  0.14730097  0.39041407  0.79200246     0.01700
C788        C  0.11230781  0.36764050  0.79790861     0.04600
C789        C  0.09319730  0.37648691  0.82253502    -0.11500
C790        C  0.10916709  0.40754310  0.84253472     0.23900
C791        C  0.14444526  0.42915980  0.83939136    -0.12100
C792        C  0.16367672  0.42051795  0.81480964     0.05300
C793        C  0.08888608  0.41799232  0.86638691     0.27700
C794        C  0.07508206  0.43623989  0.84855129    -0.12800
C795        C  0.05739392  0.44795367  0.87134044     0.05800
C796        C  0.05351281  0.44139086  0.91192901    -0.08700
C797        C  0.06698992  0.42285860  0.92974716     0.06600
C798        C  0.08476092  0.41118514  0.90697725    -0.13100
Br799      Br  0.16624350  0.47092566  0.86883064    -0.05200
Br800      Br  0.09122982  0.32269963  0.77659309     0.00500
Br801      Br  0.03877767  0.47333777  0.84720150     0.00900
Br802      Br  0.10444101  0.38688986  0.93138703    -0.03500
Br803      Br  0.21251962  0.45027135  0.81419569     0.01000
Br804      Br  0.04508591  0.34609112  0.82941954    -0.02800
Br805      Br  0.08146714  0.44599603  0.79308164    -0.03700
Br806      Br  0.06210279  0.41465099  0.98556056     0.00300
C807        C  0.10982900  0.55122970  0.08737524     0.01700
C808        C  0.13357438  0.53997591  0.08397302     0.04600
C809        C  0.16290772  0.55395579  0.10795858    -0.11500
C810        C  0.16841911  0.57864728  0.13635240     0.23900
C811        C  0.14452052  0.58953442  0.14019888    -0.12100
C812        C  0.11581699  0.57646156  0.11533546     0.05300
C813        C  0.20027682  0.59470449  0.16053369     0.27700
C814        C  0.20386790  0.57799872  0.19326904    -0.12800
C815        C  0.23446788  0.59293768  0.21513872     0.05800
C816        C  0.26079384  0.62674390  0.20746907    -0.08700
C817        C  0.25643950  0.64334316  0.17431936     0.06600
C818        C  0.22711228  0.62690425  0.15047782    -0.13100
Br819      Br  0.15144461  0.62274414  0.17955968    -0.05200
Br820      Br  0.12552532  0.50447551  0.04742599     0.00500
Br821      Br  0.24073162  0.56437890  0.25159284     0.00900
Br822      Br  0.22324815  0.64852954  0.10343692    -0.03500
Br823      Br  0.08632977  0.59533893  0.11761639     0.01000
Br824      Br  0.19601671  0.53972094  0.10156844    -0.02800
Br825      Br  0.16637838  0.53436476  0.20810073    -0.03700
Br826      Br  0.28819805  0.68966898  0.16166281     0.00300
C827        C  0.26172170  0.63163149  0.29992759     0.01700
C828        C  0.25751374  0.61071081  0.33299926     0.04600
C829        C  0.22809076  0.59766054  0.35676722    -0.11500
C830        C  0.20117216  0.60309323  0.34682980     0.23900
C831        C  0.20489100  0.62367335  0.31430868    -0.12100
C832        C  0.23549476  0.63933846  0.29252551     0.05300
C833        C  0.16910722  0.58721871  0.37080514     0.27700
C834        C  0.14530466  0.55239974  0.36705968    -0.12800
C835        C  0.11586122  0.53703351  0.39079132     0.05800
C836        C  0.10902578  0.55652466  0.41747672    -0.08700
C837        C  0.13261818  0.59151046  0.42078679     0.06600
C838        C  0.16274272  0.60661013  0.39810943    -0.13100
Br839      Br  0.16755478  0.63016531  0.29944519    -0.05200
Br840      Br  0.28989569  0.59678439  0.34557263     0.00500
Br841      Br  0.08594974  0.48873907  0.38835394     0.00900
Br842      Br  0.19564448  0.65394247  0.40468593    -0.03500
Br843      Br  0.24207758  0.67456760  0.25654391     0.01000
Br844      Br  0.22429803  0.57196666  0.40351968    -0.02800
Br845      Br  0.15306017  0.52573851  0.32904487    -0.03700
Br846      Br  0.12296780  0.61928553  0.45493898     0.00300
C847        C  0.44537948  0.56276790  0.08503797     0.01700
C848        C  0.42616241  0.54596370  0.11888610     0.04600
C849        C  0.41192239  0.56105380  0.14241006    -0.11500
C850        C  0.41613398  0.59278268  0.13225239     0.23900
C851        C  0.43515431  0.60965772  0.09859543    -0.12100
C852        C  0.44988631  0.59486109  0.07517424     0.05300
C853        C  0.39960852  0.60767037  0.15667172     0.27700
C854        C  0.36563016  0.59855465  0.14965830    -0.12800
C855        C  0.34866376  0.60974338  0.17489176     0.05800
C856        C  0.36598372  0.63170760  0.20700654    -0.08700
C857        C  0.40106667  0.64232158  0.21212386     0.06600
C858        C  0.41728610  0.62962845  0.18783335    -0.13100
Br859      Br  0.44089965  0.65315359  0.08481536    -0.05200
Br860      Br  0.41735650  0.50121309  0.13238235     0.00500
Br861      Br  0.30102100  0.59233863  0.16539937     0.00900
Br862      Br  0.46438117  0.64287639  0.19632320    -0.03500
Br863      Br  0.47759072  0.61956742  0.03076594     0.01000
Br864      Br  0.38620049  0.53820509  0.18879998    -0.02800
Br865      Br  0.34249354  0.57054522  0.10474829    -0.03700
Br866      Br  0.42927074  0.67747125  0.24840063     0.00300
C867        C  0.44613177  0.55763716  0.41396304     0.01700
C868        C  0.41505382  0.55409314  0.42772169     0.04600
C869        C  0.39752787  0.56677015  0.40548258    -0.11500
C870        C  0.41033524  0.58262696  0.36895770     0.23900
C871        C  0.44076244  0.58551270  0.35471330    -0.12100
C872        C  0.45880110  0.57357121  0.37713464     0.05300
C873        C  0.39281499  0.59770758  0.34617452     0.27700
C874        C  0.36875213  0.57900703  0.31698291    -0.12800
C875        C  0.35365866  0.59394952  0.29419357     0.05800
C876        C  0.36299839  0.62847610  0.29949771    -0.08700
C877        C  0.38617448  0.64646556  0.33055341     0.06600
C878        C  0.40094274  0.63121134  0.35328210    -0.13100
Br879      Br  0.45769873  0.60615183  0.30411291    -0.05200
Br880      Br  0.39502538  0.53026954  0.47606369     0.00500
Br881      Br  0.31759004  0.56502065  0.25907460     0.00900
Br882      Br  0.43326937  0.65640131  0.39428069    -0.03500
Br883      Br  0.50199892  0.58118633  0.35776454     0.01000
Br884      Br  0.35559539  0.56229397  0.42478065    -0.02800
Br885      Br  0.35624132  0.53238306  0.30886895    -0.03700
Br886      Br  0.40052199  0.69293233  0.34173197     0.00300
C887        C  0.36086486  0.73044205  0.20444691     0.01700
C888        C  0.35285742  0.75650799  0.21078354     0.04600
C889        C  0.36729009  0.78593004  0.18703939    -0.11500
C890        C  0.38720044  0.78865862  0.15417913     0.23900
C891        C  0.39281122  0.76186362  0.14538810    -0.12100
C892        C  0.38091013  0.73366671  0.17070828     0.05300
C893        C  0.40428367  0.82039688  0.13001147     0.27700
C894        C  0.38692560  0.82632802  0.09940977    -0.12800
C895        C  0.40414063  0.85551235  0.07542750     0.05800
C896        C  0.43922989  0.87866156  0.08116925    -0.08700
C897        C  0.45650816  0.87195120  0.11124366     0.06600
C898        C  0.43903252  0.84363734  0.13604595    -0.13100
Br899      Br  0.41772850  0.76451078  0.09823072    -0.05200
Br900      Br  0.31884490  0.75124106  0.24809782     0.00500
Br901      Br  0.37909062  0.86416461  0.03579652     0.00900
Br902      Br  0.46277954  0.83642285  0.17862820    -0.03500
Br903      Br  0.39560217  0.70191367  0.15903371     0.01000
Br904      Br  0.36007716  0.82302112  0.19951284    -0.02800
Br905      Br  0.33953864  0.79418904  0.09038972    -0.03700
Br906      Br  0.50492749  0.89983221  0.11673311     0.00300
C907        C  0.36627619  0.73215264  0.29758068     0.01700
C908        C  0.40035209  0.75822407  0.28999948     0.04600
C909        C  0.41573923  0.78840749  0.31232586    -0.11500
C910        C  0.39884267  0.79220905  0.34475095     0.23900
C911        C  0.36620586  0.76573655  0.35442654    -0.12100
C912        C  0.34961343  0.73653706  0.33063124     0.05300
C913        C  0.41478868  0.82430666  0.36828777     0.27700
C914        C  0.43921648  0.83031496  0.39751293    -0.12800
C915        C  0.45336423  0.86020633  0.42031209     0.05800
C916        C  0.44219734  0.88386835  0.41528949    -0.08700
C917        C  0.41751804  0.87755321  0.38611004     0.06600
C918        C  0.40444728  0.84834934  0.36234108    -0.13100
Br919      Br  0.34415762  0.76998136  0.40081295    -0.05200
Br920      Br  0.42854698  0.75238925  0.25250042     0.00500
Br921      Br  0.48959005  0.86946264  0.45669796     0.00900
Br922      Br  0.37210338  0.84100936  0.32133505    -0.03500
Br923      Br  0.30290574  0.70490796  0.34296482     0.01000
Br924      Br  0.46033803  0.82505895  0.29859394    -0.02800
Br925      Br  0.45294741  0.79719864  0.40650602    -0.03700
Br926      Br  0.39981276  0.90775300  0.37993152     0.00300
loop_ 
_geom_bond_atom_site_label_1 
_geom_bond_atom_site_label_2 
_geom_bond_distance 
_geom_bond_site_symmetry_2 
_ccdc_geom_bond_type 
C1            H2   1.106       .  S
C1            C7   1.558       .  S
C1            C6   1.560       .  S
C1            C5   1.560       .  S
C3            H4   1.106       .  S
C3            C9   1.565       .  S
C3            C8   1.561       .  S
C3           C10   1.564       .  S
C5            C8   1.387       .  D
C5          C856   1.526       .  S
C6            C9   1.391       .  D
C6          C887   1.535       .  S
C7           C10   1.389       .  D
C7          C816   1.532       .  S
C8          C876   1.533       .  S
C9          C907   1.532       .  S
C10         C827   1.531       .  S
C11          C12   1.421       .  A
C11          C16   1.402       .  A
C11         C776   1.486       .  S
C12          C13   1.398       .  A
C12         C787   1.494       .  S
C13          C14   1.401       .  A
C13          H18   1.085       .  S
C14          C15   1.423       .  A
C14         C747   1.487       .  S
C15          C16   1.401       .  A
C15         C727   1.496       .  S
C16          H17   1.084       .  S
C19          C20   1.421       .  A
C19          C24   1.399       .  A
C19         C707   1.478       .  S
C20          C21   1.399       .  A
C20         C676   1.492       .  S
C21          C22   1.400       .  A
C21          H26   1.084       .  S
C22          C23   1.417       .  A
C22         C647   1.479       .  S
C23          C24   1.394       .  A
C23         C687   1.487       .  S
C24          H25   1.085       .  S
C27          C28   1.420       .  A
C27          C32   1.398       .  A
C27         C627   1.484       .  S
C28          C29   1.401       .  A
C28         C607   1.488       .  S
C29          C30   1.401       .  A
C29          H34   1.085       .  S
C30          C31   1.419       .  A
C30         C567   1.489       .  S
C31          C32   1.396       .  A
C31         C587   1.478       .  S
C32          H33   1.086       .  S
O35          C51   1.274       .  A
O35         Zn41   2.008       .  S
C36         C716   1.463       .  S
C36          O52   1.274       .  A
C36          O49   1.269       .  A
O37          C50   1.275       .  A
O37         Cd44   2.087       .  S
O38          C56   1.269       .  A
O38         Cd47   2.035   1_554  S
O39          C53   1.277       .  A
O39         Cd43   2.098       .  S
O40          C51   1.276       .  A
O40         Cd43   2.072   1_455  S
Zn41         O52   2.019       .  S
Zn41         O54   2.046   1_556  S
Zn41         O46   1.944       .  S
O42          C53   1.274       .  A
O42         Cd47   2.079       .  S
Cd43         O45   2.066   1_556  S
Cd43         O46   2.002   1_655  S
Cd44         O48   2.053   1_455  S
Cd44         O57   2.071   1_455  S
Cd44         O46   1.998   1_554  S
O45          C55   1.275       .  A
O46         Cd47   1.988   1_455  S
Cd47         O49   2.027   1_655  S
O48          C55   1.273       .  A
C50         C807   1.495       .  S
C50          O54   1.276       .  A
C51         C796   1.466       .  S
C53         C547   1.489       .  S
C55         C527   1.481       .  S
C56         C596   1.484       .  S
C56          O57   1.275       .  A
O58          C74   1.276       .  A
O58         Zn64   2.019       .  S
C59         C767   1.471       .  S
C59          O75   1.276       .  A
C59          O72   1.273       .  A
O60          C73   1.275       .  A
O60         Cd67   2.086   1_455  S
O61          C79   1.273       .  A
O61         Cd70   2.054       .  S
O62          C76   1.278       .  A
O62         Cd66   2.099       .  S
O63          C74   1.272   1_655  A
O63         Cd66   2.044       .  S
Zn64         O75   2.029       .  S
Zn64         O77   2.059       .  S
Zn64         O69   1.950   1_455  S
O65          C76   1.277       .  A
O65         Cd70   2.098       .  S
Cd66         O68   2.077       .  S
Cd66         O69   2.004       .  S
Cd67         O71   2.049       .  S
Cd67         O80   2.054       .  S
Cd67         O69   1.992       .  S
O68          C78   1.273       .  A
O69         Cd70   1.996       .  S
Cd70         O72   2.055   1_655  S
O71          C78   1.268       .  A
C73         C836   1.496       .  S
C73          O77   1.277       .  A
C74         C667   1.464       .  S
C76         C516   1.500       .  S
C78         C576   1.507       .  S
C79         C487   1.478       .  S
C79          O80   1.273       .  A
C81          C82   1.418       .  A
C81          C86   1.398       .  A
C81         C536   1.491       .  S
C82          C83   1.399       .  A
C82         C496   1.482       .  S
C83          C84   1.399       .  A
C83          H88   1.084       .  S
C84          C85   1.421       .  A
C84         C456   1.492       .  S
C85          C86   1.402       .  A
C85         C476   1.485       .  S
C86          H87   1.084       .  S
C89          C90   1.412       .  A
C89          C94   1.407       .  A
C89         C436   1.480       .  S
C90          C91   1.389       .  A
C90         C416   1.485       .  S
C91          C92   1.401       .  A
C91          H96   1.086       .  S
C92          C93   1.426       .  A
C92         C387   1.481       .  S
C93          C94   1.409       .  A
C93         C367   1.506       .  S
C94          H95   1.084       .  S
C97          C98   1.418       .  A
C97         C102   1.402       .  A
C97         C347   1.487       .  S
C98          C99   1.397       .  A
C98         C316   1.485       .  S
C99         C100   1.402       .  A
C99         H104   1.076       .  S
C100        C101   1.421       .  A
C100        C287   1.484       .  S
C101        C102   1.401       .  A
C101        C327   1.492       .  S
C102        H103   1.076       .  S
O105        C121   1.273       .  A
O105       Zn111   2.002       .  S
C106        C656   1.461       .  S
C106        O122   1.274       .  A
C106        O119   1.273       .  A
O107        C120   1.274       .  A
O107       Cd114   2.087       .  S
O108        C126   1.275       .  A
O108       Cd117   2.065       .  S
O109        C123   1.278       .  A
O109       Cd113   2.104       .  S
O110        C121   1.273       .  A
O110       Cd113   2.058   1_565  S
Zn111       O122   2.010       .  S
Zn111       O124   2.061       .  S
Zn111       O116   1.951       .  S
O112        C123   1.277       .  A
O112       Cd117   2.107       .  S
Cd113       O115   2.073       .  S
Cd113       O116   2.006   1_545  S
Cd114       O118   2.047   1_565  S
Cd114       O127   2.073   1_565  S
Cd114       O116   1.994       .  S
O115        C125   1.276       .  A
O116       Cd117   1.997   1_565  S
Cd117       O119   2.048   1_545  S
O118        C125   1.271       .  A
C120        C916   1.501       .  S
C120        O124   1.277       .  A
C121        C307   1.460       .  S
C123        C267   1.509       .  S
C125        C447   1.485       .  S
C126        C407   1.483       .  S
C126        O127   1.277       .  A
O128        C144   1.278       .  A
O128       Zn134   2.033       .  S
C129        C296   1.475       .  S
C129        O145   1.279       .  A
C129        O142   1.274       .  A
O130        C143   1.274       .  A
O130       Cd137   2.081       .  S
O131        C149   1.274       .  A
O131       Cd140   2.051       .  S
O132        C146   1.274       .  A
O132       Cd136   2.084       .  S
O133        C144   1.272       .  A
O133       Cd136   2.037       .  S
Zn134       O145   2.040       .  S
Zn134       O147   2.065       .  S
Zn134       O139   1.951       .  S
O135        C146   1.276       .  A
O135       Cd140   2.095       .  S
Cd136       O138   2.064       .  S
Cd136       O139   1.993       .  S
Cd137       O141   2.057       .  S
Cd137       O150   2.058       .  S
Cd137       O139   1.998       .  S
O138        C148   1.274       .  A
O139       Cd140   1.997       .  S
Cd140       O142   2.059       .  S
O141        C148   1.273       .  A
C143        C867   1.505       .  S
C143        O147   1.278       .  A
C144        C736   1.473       .  S
C146        C256   1.501       .  S
C148        C396   1.468       .  S
C149        C616   1.470       .  S
C149        O150   1.274       .  A
O151        C167   1.273       .  A
O151       Zn157   2.005       .  S
C152        C356   1.477       .  S
C152        O168   1.276       .  A
C152        O165   1.275       .  A
O153        C166   1.275       .  A
O153       Cd160   2.085       .  S
O154        C172   1.276       .  A
O154       Cd163   2.065   1_554  S
O155        C169   1.273       .  A
O155       Cd159   2.079       .  S
O156        C167   1.273       .  A
O156       Cd159   2.058   1_565  S
Zn157       O168   2.025       .  S
Zn157       O170   2.069   1_556  S
Zn157       O162   1.955       .  S
O158        C169   1.279       .  A
O158       Cd163   2.117       .  S
Cd159       O161   2.041   1_556  S
Cd159       O162   2.001   1_545  S
Cd160       O164   2.073   1_565  S
Cd160       O173   2.081   1_565  S
Cd160       O162   2.006   1_554  S
O161        C171   1.270       .  A
O162       Cd163   2.004   1_565  S
Cd163       O165   2.067   1_545  S
O164        C171   1.274       .  A
C166        C896   1.502       .  S
C166        O170   1.278       .  A
C167        C696   1.462       .  S
C169        C227   1.497       .  S
C171        C427   1.484       .  S
C172        C467   1.481       .  S
C172        O173   1.278       .  A
O174        C190   1.276       .  A
O174       Zn180   2.022       .  S
C175        C756   1.476       .  S
C175        O191   1.276       .  A
C175        O188   1.275       .  A
O176        C189   1.273       .  A
O176       Cd183   2.070       .  S
O177        C195   1.277       .  A
O177       Cd186   2.076   1_554  S
O178        C192   1.279       .  A
O178       Cd182   2.107       .  S
O179        C190   1.273       .  A
O179       Cd182   2.056       .  S
Zn180       O191   2.031       .  S
Zn180       O193   2.060   1_556  S
Zn180       O185   1.956       .  S
O181        C192   1.278       .  A
O181       Cd186   2.097       .  S
Cd182       O184   2.069   1_556  S
Cd182       O185   2.002       .  S
Cd183       O187   2.074       .  S
Cd183       O196   2.056       .  S
Cd183       O185   1.997   1_554  S
O184        C194   1.274       .  A
O185       Cd186   2.004       .  S
Cd186       O188   2.071       .  S
O187        C194   1.275       .  A
C189        C847   1.496       .  S
C189        O193   1.278       .  A
C190        C336   1.464       .  S
C192        C216   1.499       .  S
C194        C636   1.493       .  S
C195        C376   1.485       .  S
C195        O196   1.272       .  A
C197        H198   1.107       .  S
C197        C203   1.562       .  S
C197        C202   1.563       .  S
C197        C201   1.562       .  S
C199        H200   1.107       .  S
C199        C205   1.564       .  S
C199        C204   1.562       .  S
C199        C206   1.561       .  S
C201        C204   1.390       .  D
C201        C247   1.526       .  S
C202        C205   1.392       .  D
C202        C276   1.537       .  S
C203        C206   1.386       .  D
C203        C507   1.533       .  S
C204        C207   1.535       .  S
C205        C236   1.531       .  S
C206        C556   1.526       .  S
C207        C208   1.428       .  A
C207        C212   1.427       .  A
C208        C209   1.415       .  A
C208       Br220   1.920       .  S
C209        C210   1.404       .  A
C209       Br224   1.935       .  S
C210        C211   1.406       .  A
C210        C213   1.502       .  S
C211        C212   1.417       .  A
C211       Br219   1.933       .  S
C212       Br223   1.922       .  S
C213        C214   1.409       .  A
C213        C218   1.411       .  A
C214        C215   1.413       .  A
C214       Br225   1.928       .  S
C215        C216   1.414       .  A
C215       Br221   1.922       .  S
C216        C217   1.414       .  A
C217        C218   1.415       .  A
C217       Br226   1.924       .  S
C218       Br222   1.929       .  S
C227        C228   1.412       .  A
C227        C232   1.415       .  A
C228        C229   1.411       .  A
C228       Br240   1.919       .  S
C229        C230   1.409       .  A
C229       Br244   1.929       .  S
C230        C231   1.412       .  A
C230        C233   1.500       .  S
C231        C232   1.416       .  A
C231       Br239   1.929       .  S
C232       Br243   1.930       .  S
C233        C234   1.403       .  A
C233        C238   1.407       .  A
C234        C235   1.414       .  A
C234       Br245   1.936       .  S
C235        C236   1.428       .  A
C235       Br241   1.918       .  S
C236        C237   1.425       .  A
C237        C238   1.416       .  A
C237       Br246   1.924       .  S
C238       Br242   1.931       .  S
C247        C248   1.428       .  A
C247        C252   1.426       .  A
C248        C249   1.410       .  A
C248       Br260   1.919       .  S
C249        C250   1.402       .  A
C249       Br264   1.937       .  S
C250        C251   1.404       .  A
C250        C253   1.492       .  S
C251        C252   1.413       .  A
C251       Br259   1.931       .  S
C252       Br263   1.924       .  S
C253        C254   1.406       .  A
C253        C258   1.407       .  A
C254        C255   1.410       .  A
C254       Br265   1.933       .  S
C255        C256   1.418       .  A
C255       Br261   1.921       .  S
C256        C257   1.420       .  A
C257        C258   1.412       .  A
C257       Br266   1.927       .  S
C258       Br262   1.932       .  S
C267        C268   1.420       .  A
C267        C272   1.419       .  A
C268        C269   1.416       .  A
C268       Br280   1.924       .  S
C269        C270   1.409       .  A
C269       Br284   1.932       .  S
C270        C271   1.411       .  A
C270        C273   1.505       .  S
C271        C272   1.417       .  A
C271       Br279   1.930       .  S
C272       Br283   1.931       .  S
C273        C274   1.405       .  A
C273        C278   1.406       .  A
C274        C275   1.417       .  A
C274       Br285   1.935       .  S
C275        C276   1.429       .  A
C275       Br281   1.919       .  S
C276        C277   1.427       .  A
C277        C278   1.418       .  A
C277       Br286   1.921       .  S
C278       Br282   1.931       .  S
C287        C288   1.417       .  A
C287        C292   1.413       .  A
C288        C289   1.408       .  A
C288       Br300   1.932       .  S
C289        C290   1.406       .  A
C289       Br304   1.928       .  S
C290        C291   1.405       .  A
C290        C293   1.477       .  S
C291        C292   1.400       .  A
C291       Br299   1.936       .  S
C292       Br303   1.925       .  S
C293        C294   1.410       .  A
C293        C298   1.404       .  A
C294        C295   1.407       .  A
C294       Br305   1.930       .  S
C295        C296   1.410       .  A
C295       Br301   1.930       .  S
C296        C297   1.410       .  A
C297        C298   1.403       .  A
C297       Br306   1.919       .  S
C298       Br302   1.931       .  S
C307        C308   1.407       .  A
C307        C312   1.406       .  A
C308        C309   1.401       .  A
C308       Br320   1.930       .  S
C309        C310   1.406       .  A
C309       Br324   1.929       .  S
C310        C311   1.409       .  A
C310        C313   1.472       .  S
C311        C312   1.404       .  A
C311       Br319   1.926       .  S
C312       Br323   1.929       .  S
C313        C314   1.405       .  A
C313        C318   1.406       .  A
C314        C315   1.401       .  A
C314       Br325   1.933       .  S
C315        C316   1.418       .  A
C315       Br321   1.935       .  S
C316        C317   1.408       .  A
C317        C318   1.404       .  A
C317       Br326   1.923       .  S
C318       Br322   1.928       .  S
C327        C328   1.412       .  A
C327        C332   1.422       .  A
C328        C329   1.407       .  A
C328       Br340   1.923       .  S
C329        C330   1.406       .  A
C329       Br344   1.928       .  S
C330        C331   1.404       .  A
C330        C333   1.476       .  S
C331        C332   1.403       .  A
C331       Br339   1.935       .  S
C332       Br343   1.935       .  S
C333        C334   1.409       .  A
C333        C338   1.409       .  A
C334        C335   1.405       .  A
C334       Br345   1.930       .  S
C335        C336   1.407       .  A
C335       Br341   1.929       .  S
C336        C337   1.407       .  A
C337        C338   1.404       .  A
C337       Br346   1.930       .  S
C338       Br342   1.930       .  S
C347        C348   1.414       .  A
C347        C352   1.416       .  A
C348        C349   1.407       .  A
C348       Br360   1.930       .  S
C349        C350   1.406       .  A
C349       Br364   1.929       .  S
C350        C351   1.404       .  A
C350        C353   1.479       .  S
C351        C352   1.403       .  A
C351       Br359   1.934       .  S
C352       Br363   1.924       .  S
C353        C354   1.410       .  A
C353        C358   1.404       .  A
C354        C355   1.406       .  A
C354       Br365   1.931       .  S
C355        C356   1.411       .  A
C355       Br361   1.931       .  S
C356        C357   1.412       .  A
C357        C358   1.404       .  A
C357       Br366   1.921       .  S
C358       Br362   1.929       .  S
C367        C368   1.415       .  A
C367        C372   1.422       .  A
C368        C369   1.411       .  A
C368       Br380   1.920       .  S
C369        C370   1.405       .  A
C369       Br384   1.926       .  S
C370        C371   1.403       .  A
C370        C373   1.481       .  S
C371        C372   1.403       .  A
C371       Br379   1.939       .  S
C372       Br383   1.919       .  S
C373        C374   1.406       .  A
C373        C378   1.405       .  A
C374        C375   1.408       .  A
C374       Br385   1.928       .  S
C375        C376   1.417       .  A
C375       Br381   1.932       .  S
C376        C377   1.418       .  A
C377        C378   1.405       .  A
C377       Br386   1.936       .  S
C378       Br382   1.927       .  S
C387        C388   1.417       .  A
C387        C392   1.412       .  A
C388        C389   1.403       .  A
C388       Br400   1.935       .  S
C389        C390   1.405       .  A
C389       Br404   1.932       .  S
C390        C391   1.407       .  A
C390        C393   1.475       .  S
C391        C392   1.405       .  A
C391       Br399   1.933       .  S
C392       Br403   1.929       .  S
C393        C394   1.407       .  A
C393        C398   1.408       .  A
C394        C395   1.405       .  A
C394       Br405   1.930       .  S
C395        C396   1.410       .  A
C395       Br401   1.930       .  S
C396        C397   1.408       .  A
C397        C398   1.402       .  A
C397       Br406   1.927       .  S
C398       Br402   1.932       .  S
C407        C408   1.416       .  A
C407        C412   1.418       .  A
C408        C409   1.407       .  A
C408       Br420   1.930   1_545  S
C409        C410   1.406       .  A
C409       Br424   1.931       .  S
C410        C411   1.407       .  A
C410        C413   1.480       .  S
C411        C412   1.405       .  A
C411       Br419   1.933       .  S
C412       Br423   1.935       .  S
C413        C414   1.407       .  A
C413        C418   1.407       .  A
C414        C415   1.403       .  A
C414       Br425   1.932       .  S
C415        C416   1.411       .  A
C415       Br421   1.923       .  S
C416        C417   1.412       .  A
C417        C418   1.407       .  A
C417       Br426   1.929       .  S
C418       Br422   1.929       .  S
C427        C428   1.418       .  A
C427        C432   1.421       .  A
C428        C429   1.405       .  A
C428       Br440   1.934       .  S
C429        C430   1.407       .  A
C429       Br444   1.933       .  S
C430        C431   1.403       .  A
C430        C433   1.474       .  S
C431        C432   1.402       .  A
C431       Br439   1.935       .  S
C432       Br443   1.933       .  S
C433        C434   1.407       .  A
C433        C438   1.405       .  A
C434        C435   1.407       .  A
C434       Br445   1.928       .  S
C435        C436   1.410       .  A
C435       Br441   1.922       .  S
C436        C437   1.412       .  A
C437        C438   1.398       .  A
C437       Br446   1.922       .  S
C438       Br442   1.937       .  S
C447        C448   1.421       .  A
C447        C452   1.419       .  A
C448        C449   1.404       .  A
C448       Br460   1.936       .  S
C449        C450   1.403       .  A
C449       Br464   1.933       .  S
C450        C451   1.404       .  A
C450        C453   1.475       .  S
C451        C452   1.405       .  A
C451       Br459   1.931       .  S
C452       Br463   1.933       .  S
C453        C454   1.404       .  A
C453        C458   1.405       .  A
C454        C455   1.407       .  A
C454       Br465   1.928       .  S
C455        C456   1.414       .  A
C455       Br461   1.923       .  S
C456        C457   1.422       .  A
C457        C458   1.401       .  A
C457       Br466   1.938       .  S
C458       Br462   1.937       .  S
C467        C468   1.414       .  A
C467        C472   1.414       .  A
C468        C469   1.404       .  A
C468       Br480   1.934       .  S
C469        C470   1.407       .  A
C469       Br484   1.933       .  S
C470        C471   1.404       .  A
C470        C473   1.476       .  S
C471        C472   1.406       .  A
C471       Br479   1.931       .  S
C472       Br483   1.920   1_545  S
C473        C474   1.406       .  A
C473        C478   1.405       .  A
C474        C475   1.407       .  A
C474       Br485   1.929       .  S
C475        C476   1.416       .  A
C475       Br481   1.933       .  S
C476        C477   1.413       .  A
C477        C478   1.400       .  A
C477       Br486   1.925       .  S
C478       Br482   1.934       .  S
C487        C488   1.418       .  A
C487        C492   1.418       .  A
C488        C489   1.402       .  A
C488       Br500   1.937       .  S
C489        C490   1.405       .  A
C489       Br504   1.933       .  S
C490        C491   1.403       .  A
C490        C493   1.471       .  S
C491        C492   1.404       .  A
C491       Br499   1.933       .  S
C492       Br503   1.932       .  S
C493        C494   1.406       .  A
C493        C498   1.403       .  A
C494        C495   1.404       .  A
C494       Br505   1.930       .  S
C495        C496   1.414       .  A
C495       Br501   1.932       .  S
C496        C497   1.414       .  A
C497        C498   1.400       .  A
C497       Br506   1.925       .  S
C498       Br502   1.933       .  S
C507        C508   1.426       .  A
C507        C512   1.427       .  A
C508        C509   1.416       .  A
C508       Br520   1.922       .  S
C509        C510   1.405       .  A
C509       Br524   1.933       .  S
C510        C511   1.405       .  A
C510        C513   1.500       .  S
C511        C512   1.415       .  A
C511       Br519   1.933       .  S
C512       Br523   1.921       .  S
C513        C514   1.408       .  A
C513        C518   1.411       .  A
C514        C515   1.413       .  A
C514       Br525   1.932       .  S
C515        C516   1.417       .  A
C515       Br521   1.923       .  S
C516        C517   1.416       .  A
C517        C518   1.415       .  A
C517       Br526   1.930       .  S
C518       Br522   1.929       .  S
C527        C528   1.416       .  A
C527        C532   1.418       .  A
C528        C529   1.405       .  A
C528       Br540   1.933       .  S
C529        C530   1.407       .  A
C529       Br544   1.932       .  S
C530        C531   1.405       .  A
C530        C533   1.477       .  S
C531        C532   1.404       .  A
C531       Br539   1.932       .  S
C532       Br543   1.935       .  S
C533        C534   1.406       .  A
C533        C538   1.405       .  A
C534        C535   1.403       .  A
C534       Br545   1.935       .  S
C535        C536   1.420       .  A
C535       Br541   1.938       .  S
C536        C537   1.413       .  A
C537        C538   1.405       .  A
C537       Br546   1.923       .  S
C538       Br542   1.930       .  S
C547        C548   1.412       .  A
C547        C552   1.412       .  A
C548        C549   1.411       .  A
C548       Br560   1.925       .  S
C549        C550   1.410       .  A
C549       Br564   1.930       .  S
C550        C551   1.411       .  A
C550        C553   1.495       .  S
C551        C552   1.412       .  A
C551       Br559   1.929       .  S
C552       Br563   1.929       .  S
C553        C554   1.405       .  A
C553        C558   1.405       .  A
C554        C555   1.413       .  A
C554       Br565   1.934       .  S
C555        C556   1.426       .  A
C555       Br561   1.922       .  S
C556        C557   1.425       .  A
C557        C558   1.413       .  A
C557       Br566   1.922       .  S
C558       Br562   1.933       .  S
C567        C568   1.415       .  A
C567        C572   1.415       .  A
C568        C569   1.410       .  A
C568       Br580   1.927       .  S
C569        C570   1.407       .  A
C569       Br584   1.928       .  S
C570        C571   1.405       .  A
C570        C573   1.482       .  S
C571        C572   1.401       .  A
C571       Br579   1.937       .  S
C572       Br583   1.920       .  S
C573        C574   1.399       .  A
C573        C578   1.403       .  A
C574        C575   1.406       .  A
C574       Br585   1.929       .  S
C575        C576   1.433       .  A
C575       Br581   1.942       .  S
C576        C577   1.430       .  A
C577        C578   1.410       .  A
C577       Br586   1.937       .  S
C578       Br582   1.935       .  S
C587        C588   1.412       .  A
C587        C592   1.409       .  A
C588        C589   1.397       .  A
C588       Br600   1.934       .  S
C589        C590   1.407       .  A
C589       Br604   1.934       .  S
C590        C591   1.407       .  A
C590        C593   1.473       .  S
C591        C592   1.406       .  A
C591       Br599   1.929       .  S
C592       Br603   1.924       .  S
C593        C594   1.402       .  A
C593        C598   1.403       .  A
C594        C595   1.403       .  A
C594       Br605   1.926       .  S
C595        C596   1.419       .  A
C595       Br601   1.932       .  S
C596        C597   1.423       .  A
C597        C598   1.403       .  A
C597       Br606   1.937       .  S
C598       Br602   1.935       .  S
C607        C608   1.420       .  A
C607        C612   1.410       .  A
C608        C609   1.401       .  A
C608       Br620   1.930       .  S
C609        C610   1.403       .  A
C609       Br624   1.935       .  S
C610        C611   1.404       .  A
C610        C613   1.470       .  S
C611        C612   1.402       .  A
C611       Br619   1.928       .  S
C612       Br623   1.921       .  S
C613        C614   1.406       .  A
C613        C618   1.405       .  A
C614        C615   1.402       .  A
C614       Br625   1.930       .  S
C615        C616   1.413       .  A
C615       Br621   1.934       .  S
C616        C617   1.413       .  A
C617        C618   1.402       .  A
C617       Br626   1.933       .  S
C618       Br622   1.931       .  S
C627        C628   1.414       .  A
C627        C632   1.413       .  A
C628        C629   1.405       .  A
C628       Br640   1.934       .  S
C629        C630   1.407       .  A
C629       Br644   1.930       .  S
C630        C631   1.406       .  A
C630        C633   1.479       .  S
C631        C632   1.405       .  A
C631       Br639   1.932       .  S
C632       Br643   1.927       .  S
C633        C634   1.404       .  A
C633        C638   1.405       .  A
C634        C635   1.410       .  A
C634       Br645   1.931       .  S
C635        C636   1.422       .  A
C635       Br641   1.933       .  S
C636        C637   1.421       .  A
C637        C638   1.404       .  A
C637       Br646   1.931       .  S
C638       Br642   1.937       .  S
C647        C648   1.413       .  A
C647        C652   1.413       .  A
C648        C649   1.398       .  A
C648       Br660   1.924       .  S
C649        C650   1.403       .  A
C649       Br664   1.935       .  S
C650        C651   1.405       .  A
C650        C653   1.469       .  S
C651        C652   1.405       .  A
C651       Br659   1.928       .  S
C652       Br663   1.931       .  S
C653        C654   1.404       .  A
C653        C658   1.410       .  A
C654        C655   1.400       .  A
C654       Br665   1.927       .  S
C655        C656   1.407       .  A
C655       Br661   1.925       .  S
C656        C657   1.407       .  A
C657        C658   1.403       .  A
C657       Br666   1.930       .  S
C658       Br662   1.931       .  S
C667        C668   1.407       .  A
C667        C672   1.410       .  A
C668        C669   1.403       .  A
C668       Br680   1.930       .  S
C669        C670   1.409       .  A
C669       Br684   1.930       .  S
C670        C671   1.407       .  A
C670        C673   1.474       .  S
C671        C672   1.403       .  A
C671       Br679   1.930       .  S
C672       Br683   1.933       .  S
C673        C674   1.404       .  A
C673        C678   1.404       .  A
C674        C675   1.405       .  A
C674       Br685   1.929       .  S
C675        C676   1.412       .  A
C675       Br681   1.921       .  S
C676        C677   1.422       .  A
C677        C678   1.403       .  A
C677       Br686   1.934       .  S
C678       Br682   1.936       .  S
C687        C688   1.410       .  A
C687        C692   1.419       .  A
C688        C689   1.405       .  A
C688       Br700   1.923       .  S
C689        C690   1.405       .  A
C689       Br704   1.929       .  S
C690        C691   1.405       .  A
C690        C693   1.473       .  S
C691        C692   1.402       .  A
C691       Br699   1.934       .  S
C692       Br703   1.935       .  S
C693        C694   1.408       .  A
C693        C698   1.407       .  A
C694        C695   1.403       .  A
C694       Br705   1.927       .  S
C695        C696   1.407       .  A
C695       Br701   1.931       .  S
C696        C697   1.407       .  A
C697        C698   1.402       .  A
C697       Br706   1.927       .  S
C698       Br702   1.931       .  S
C707        C708   1.415       .  A
C707        C712   1.413       .  A
C708        C709   1.404       .  A
C708       Br720   1.932       .  S
C709        C710   1.404       .  A
C709       Br724   1.929       .  S
C710        C711   1.404       .  A
C710        C713   1.469       .  S
C711        C712   1.399       .  A
C711       Br719   1.935       .  S
C712       Br723   1.926       .  S
C713        C714   1.408       .  A
C713        C718   1.404       .  A
C714        C715   1.403       .  A
C714       Br725   1.930       .  S
C715        C716   1.409       .  A
C715       Br721   1.932       .  S
C716        C717   1.409       .  A
C717        C718   1.400       .  A
C717       Br726   1.926       .  S
C718       Br722   1.930       .  S
C727        C728   1.412       .  A
C727        C732   1.425       .  A
C728        C729   1.406       .  A
C728       Br740   1.921       .  S
C729        C730   1.405       .  A
C729       Br744   1.928       .  S
C730        C731   1.402       .  A
C730        C733   1.476       .  S
C731        C732   1.402       .  A
C731       Br739   1.936       .  S
C732       Br743   1.935       .  S
C733        C734   1.409       .  A
C733        C738   1.406       .  A
C734        C735   1.404       .  A
C734       Br745   1.932       .  S
C735        C736   1.411       .  A
C735       Br741   1.931       .  S
C736        C737   1.415       .  A
C737        C738   1.405       .  A
C737       Br746   1.934       .  S
C738       Br742   1.930       .  S
C747        C748   1.417       .  A
C747        C752   1.414       .  A
C748        C749   1.407       .  A
C748       Br760   1.934       .  S
C749        C750   1.407       .  A
C749       Br764   1.930       .  S
C750        C751   1.407       .  A
C750        C753   1.483       .  S
C751        C752   1.405       .  A
C751       Br759   1.933       .  S
C752       Br763   1.927       .  S
C753        C754   1.412       .  A
C753        C758   1.407       .  A
C754        C755   1.408       .  A
C754       Br765   1.930       .  S
C755        C756   1.409       .  A
C755       Br761   1.930       .  S
C756        C757   1.409       .  A
C757        C758   1.406       .  A
C757       Br766   1.922       .  S
C758       Br762   1.932       .  S
C767        C768   1.409       .  A
C767        C772   1.410       .  A
C768        C769   1.403       .  A
C768       Br780   1.923       .  S
C769        C770   1.405       .  A
C769       Br784   1.931       .  S
C770        C771   1.409       .  A
C770        C773   1.477       .  S
C771        C772   1.407       .  A
C771       Br779   1.929       .  S
C772       Br783   1.931       .  S
C773        C774   1.404       .  A
C773        C778   1.406       .  A
C774        C775   1.402       .  A
C774       Br785   1.935       .  S
C775        C776   1.415       .  A
C775       Br781   1.924       .  S
C776        C777   1.417       .  A
C777        C778   1.408       .  A
C777       Br786   1.932       .  S
C778       Br782   1.929       .  S
C787        C788   1.412       .  A
C787        C792   1.423       .  A
C788        C789   1.407       .  A
C788       Br800   1.922       .  S
C789        C790   1.405       .  A
C789       Br804   1.929       .  S
C790        C791   1.404       .  A
C790        C793   1.478       .  S
C791        C792   1.404       .  A
C791       Br799   1.934       .  S
C792       Br803   1.937       .  S
C793        C794   1.408       .  A
C793        C798   1.409       .  A
C794        C795   1.404       .  A
C794       Br805   1.930       .  S
C795        C796   1.407       .  A
C795       Br801   1.929       .  S
C796        C797   1.408       .  A
C797        C798   1.406       .  A
C797       Br806   1.929       .  S
C798       Br802   1.929       .  S
C807        C808   1.415       .  A
C807        C812   1.414       .  A
C808        C809   1.414       .  A
C808       Br820   1.931       .  S
C809        C810   1.411       .  A
C809       Br824   1.930       .  S
C810        C811   1.411       .  A
C810        C813   1.499       .  S
C811        C812   1.412       .  A
C811       Br819   1.931       .  S
C812       Br823   1.927       .  S
C813        C814   1.406       .  A
C813        C818   1.404       .  A
C814        C815   1.415       .  A
C814       Br825   1.931       .  S
C815        C816   1.426       .  A
C815       Br821   1.923       .  S
C816        C817   1.428       .  A
C817        C818   1.413       .  A
C817       Br826   1.921       .  S
C818       Br822   1.936       .  S
C827        C828   1.427       .  A
C827        C832   1.425       .  A
C828        C829   1.415       .  A
C828       Br840   1.923       .  S
C829        C830   1.407       .  A
C829       Br844   1.934       .  S
C830        C831   1.407       .  A
C830        C833   1.503       .  S
C831        C832   1.415       .  A
C831       Br839   1.931       .  S
C832       Br843   1.924       .  S
C833        C834   1.412       .  A
C833        C838   1.413       .  A
C834        C835   1.413       .  A
C834       Br845   1.930       .  S
C835        C836   1.414       .  A
C835       Br841   1.929       .  S
C836        C837   1.415       .  A
C837        C838   1.415       .  A
C837       Br846   1.930       .  S
C838       Br842   1.930       .  S
C847        C848   1.418       .  A
C847        C852   1.416       .  A
C848        C849   1.411       .  A
C848       Br860   1.933       .  S
C849        C850   1.408       .  A
C849       Br864   1.932       .  S
C850        C851   1.411       .  A
C850        C853   1.496       .  S
C851        C852   1.415       .  A
C851       Br859   1.929       .  S
C852       Br863   1.930       .  S
C853        C854   1.404       .  A
C853        C858   1.404       .  A
C854        C855   1.413       .  A
C854       Br865   1.933       .  S
C855        C856   1.426       .  A
C855       Br861   1.924       .  S
C856        C857   1.426       .  A
C857        C858   1.414       .  A
C857       Br866   1.921       .  S
C858       Br862   1.932       .  S
C867        C868   1.420       .  A
C867        C872   1.420       .  A
C868        C869   1.416       .  A
C868       Br880   1.932       .  S
C869        C870   1.411       .  A
C869       Br884   1.929       .  S
C870        C871   1.409       .  A
C870        C873   1.504       .  S
C871        C872   1.415       .  A
C871       Br879   1.931       .  S
C872       Br883   1.932       .  S
C873        C874   1.406       .  A
C873        C878   1.405       .  A
C874        C875   1.417       .  A
C874       Br885   1.931       .  S
C875        C876   1.426       .  A
C875       Br881   1.922       .  S
C876        C877   1.427       .  A
C877        C878   1.416       .  A
C877       Br886   1.923       .  S
C878       Br882   1.934       .  S
C887        C888   1.427       .  A
C887        C892   1.429       .  A
C888        C889   1.417       .  A
C888       Br900   1.923       .  S
C889        C890   1.407       .  A
C889       Br904   1.930       .  S
C890        C891   1.404       .  A
C890        C893   1.502       .  S
C891        C892   1.414       .  A
C891       Br899   1.936       .  S
C892       Br903   1.921       .  S
C893        C894   1.413       .  A
C893        C898   1.408       .  A
C894        C895   1.419       .  A
C894       Br905   1.929       .  S
C895        C896   1.418       .  A
C895       Br901   1.930       .  S
C896        C897   1.414       .  A
C897        C898   1.410       .  A
C897       Br906   1.921       .  S
C898       Br902   1.932       .  S
C907        C908   1.427       .  A
C907        C912   1.428       .  A
C908        C909   1.416       .  A
C908       Br920   1.923       .  S
C909        C910   1.407       .  A
C909       Br924   1.932       .  S
C910        C911   1.405       .  A
C910        C913   1.502       .  S
C911        C912   1.414       .  A
C911       Br919   1.934       .  S
C912       Br923   1.923       .  S
C913        C914   1.412       .  A
C913        C918   1.410       .  A
C914        C915   1.416       .  A
C914       Br925   1.930       .  S
C915        C916   1.417       .  A
C915       Br921   1.930       .  S
C916        C917   1.416       .  A
C917        C918   1.413       .  A
C917       Br926   1.927       .  S
C918       Br922   1.931       .  S
