geometry optimzed in LAMMPS
_audit_creation_date              2020-11-30 
_audit_creation_method            'lammps2cif' 
_symmetry_space_group_name_H-M    'P1' 
_symmetry_Int_Tables_number       1 
_symmetry_cell_setting            triclinic 
loop_ 
_symmetry_equiv_pos_as_xyz 
  x,y,z 
_cell_length_a                    39.23297758 
_cell_length_b                    39.597144597863604 
_cell_length_c                    68.4378373108901 
_cell_angle_alpha                 86.27671072347098 
_cell_angle_beta                  91.41847130629355 
_cell_angle_gamma                 120.09678371951196 
loop_ 
_atom_site_label 
_atom_site_type_symbol 
_atom_site_fract_x 
_atom_site_fract_y 
_atom_site_fract_z 
_atom_site_charge 
C1          C  0.12687065  0.49806920  0.10348544     0.80000
N2          N  0.13759422  0.47063909  0.10767347    -0.78300
C3          C  0.15309776  0.46808115  0.12531855     0.82400
N4          N  0.15756722  0.49380764  0.13885264    -0.78300
C5          C  0.15015040  0.02277897  0.13677354     0.82500
N6          N  0.13094622  0.02168193  0.11987866    -0.80000
C7          C  0.15035273  0.05828200  0.18507024     0.80000
N8          N  0.15826870  0.09528440  0.18039625    -0.78300
C9          C  0.16318068  0.11005957  0.16149023     0.82400
N10         N  0.16035086  0.08651301  0.14700570    -0.78300
C11         C  0.15407553  0.04962122  0.15170808     0.82500
N12         N  0.14928470  0.03598596  0.17068914    -0.80000
C13         C  0.46436700  0.09915937  0.10054337     0.80000
N14         N  0.49657205  0.13085926  0.10741039    -0.78300
C15         C  0.50047096  0.13836060  0.12676559     0.82400
N16         N  0.47066723  0.11380212  0.13922315    -0.78300
C17         C  0.43786858  0.08237828  0.13268400     0.82500
N18         N  0.43506904  0.07495658  0.11343781    -0.80000
C19         C  0.37429360  0.04418266  0.17705110     0.80000
N20         N  0.40281999  0.06882846  0.16398463    -0.78300
C21         C  0.40615445  0.05597929  0.14652808     0.82400
N22         N  0.37415039  0.52616211  0.13686109    -0.78300
C23         C  0.34496326  0.50168694  0.14973370     0.82500
N24         N  0.34189391  0.51496014  0.16705942    -0.80000
C25         C  0.44435243  0.27090284  0.18276828     0.80000
N26         N  0.48099766  0.27901997  0.17809469    -0.78300
C27         C  0.49563665  0.29116467  0.15965198     0.82400
N28         N  0.47300086  0.29561396  0.14567073    -0.78300
C29         C  0.43613745  0.28783034  0.15008658     0.82500
N30         N  0.42185188  0.27575503  0.16870757    -0.80000
C31         C  0.40360395  0.30716800  0.10179887     0.80000
N32         N  0.42485240  0.30062340  0.11587207    -0.78300
C33         C  0.41243647  0.29326948  0.13478797     0.82400
N34         N  0.37925070  0.29335875  0.13959096    -0.78300
C35         C  0.35784685  0.30025317  0.12566163     0.82500
N36         N  0.37009398  0.30668028  0.10673624    -0.80000
C37         C  0.18407434  0.34107886  0.15007793     0.02000
C38         C  0.14871562  0.30464253  0.15075434     0.02000
C39         C  0.14904406  0.26929958  0.15020851     0.02000
C40         C  0.18446830  0.26863209  0.15257934     0.02000
C41         C  0.22078519  0.30501415  0.15183978     0.02000
C42         C  0.22055669  0.34142034  0.15071639     0.02000
Zr43       Zr  0.30218291  0.10783169  0.34645655     2.17500
O44         O  0.30720599  0.07973216  0.37850564    -0.51600
O45         O  0.27716688  0.13536366  0.36913247    -0.74800
O46         O  0.36667947  0.14383132  0.36024941    -0.81600
O47         O  0.20309277  0.02586346  0.34381219    -0.83300
O48         O  0.40681926  0.19489863  0.33930956    -0.78900
O49         O  0.26280492  0.03833040  0.35325091    -0.90600
O50         O  0.26422074  0.17852041  0.35208385    -0.76500
O51         O  0.32259110  0.17156485  0.33226393    -0.86000
O52         O  0.24405825  0.10531623  0.33318350    -0.85700
O53         O  0.35261474  0.12015574  0.32310065    -0.72500
O54         O  0.27848279  0.05774879  0.32352822    -0.84600
Zr55       Zr  0.28940842  0.13130250  0.27181462     2.26400
Zr56       Zr  0.37130444  0.18370289  0.30829544     2.06300
Zr57       Zr  0.22026183  0.05510442  0.31019572     2.10000
Zr58       Zr  0.26527799  0.16867563  0.31800146     1.78800
O59         O  0.19341795  0.98478278  0.30956159    -0.93400
O60         O  0.30302402  0.23936426  0.32034884    -0.41200
O61         O  0.23917459  0.11870682  0.29502342    -0.77900
O62         O  0.31417260  0.18238060  0.29404409    -0.96500
O63         O  0.34743377  0.13458353  0.28501569    -0.89800
O64         O  0.26912317  0.06732837  0.28599910    -0.92700
C65         C  0.26743767  0.16193191  0.36804949     1.01100
C66         C  0.22615706  0.02295256  0.35659458     1.14000
C67         C  0.39916625  0.17491295  0.35578948     1.04800
O68         O  0.39145610  0.25194226  0.31200542    -0.94800
O69         O  0.39438703  0.21322006  0.27542347    -0.90600
O70         O  0.34107363  0.18904042  0.25539960    -0.83700
C71         C  0.37750139  0.21177536  0.25891305     1.11400
O72         O  0.34732240  0.03524941  0.32248419    -0.96800
Zr73       Zr  0.32745449  0.07142061  0.29934439     1.88900
O74         O  0.31323531  0.10569579  0.24782028    -0.73500
O75         O  0.43866948  0.19879816  0.30248768    -0.52700
O76         O  0.39600790  0.08919196  0.29526582    -0.97400
O77         O  0.29390832  0.00157538  0.29443958    -0.54600
O78         O  0.33828274  0.07210609  0.26437573    -0.74000
C79         C  0.33092973  0.08597006  0.24833770     0.98400
O80         O  0.27199115  0.16723339  0.24710940    -0.62800
O81         O  0.15450173  0.04558593  0.31455607    -0.57600
O82         O  0.22759154  0.08932510  0.25690808    -0.94300
O83         O  0.18651536  0.04027149  0.27864752    -0.92700
O84         O  0.19797384  0.15312914  0.32426908    -0.93100
O85         O  0.24316041  0.20336712  0.29512134    -0.91900
C86         C  0.19558199  0.05776922  0.26148598     1.17200
H87         H  0.22437628  0.09897841  0.34312971     0.33100
H88         H  0.32136946  0.20718040  0.28718778     0.44000
H89         H  0.25838667  0.04780191  0.27633820     0.37500
H90         H  0.37503922  0.11992134  0.32922363     0.34000
H91         H  0.28447789  0.24611618  0.32613095     0.25800
H92         H  0.45552393  0.22436665  0.30816727     0.31700
H93         H  0.41031131  0.11798273  0.29293173     0.37600
H94         H  0.18198620  0.13447010  0.31434492     0.32100
H95         H  0.13830398  0.01785421  0.31933990     0.31000
H96         H  0.18030234  0.97752259  0.29674259     0.32700
H97         H  0.29510376  0.99965554  0.28015204     0.31600
H98         H  0.22902067  0.18488557  0.28482736     0.35600
H99         H  0.26772647  0.15354966  0.23489556     0.28400
H100        H  0.31715551  0.10114006  0.38756830     0.32600
H101        H  0.34977565  0.04698134  0.33515630     0.35400
H102        H  0.15667116  0.06058841  0.32600083     0.28000
H103        H  0.24560901  0.16218966  0.25095948     0.40900
H104        H  0.39506579  0.25517923  0.32626596     0.31000
H105        H  0.32238370  0.24357097  0.33082217     0.38600
H106        H  0.26580429  0.99212023  0.29723233     0.30400
H107        H  0.44213507  0.17979869  0.31119647     0.30500
H108        H  0.32887952  0.07400324  0.37726126     0.30800
C109        C  0.23813472  0.47760665  0.51800313     0.80000
N110        N  0.21569539  0.47948442  0.50315239    -0.78300
C111        C  0.22428076  0.47790887  0.48423983     0.82400
N112        N  0.25764152  0.97346849  0.48158800    -0.78300
C113        C  0.27894077  0.47182494  0.49490360     0.82500
N114        N  0.26977704  0.47424716  0.51356222    -0.80000
C115        C  0.17844572  0.48177001  0.43635183     0.80000
N116        N  0.14246677  0.47352368  0.44263885    -0.78300
C117        C  0.13286042  0.46655728  0.46188885     0.82400
N118        N  0.16010719  0.46864015  0.47503468    -0.78300
C119        C  0.19621267  0.47631420  0.46909947     0.82500
N120        N  0.20539004  0.48258310  0.44962548    -0.80000
C121        C  0.15572016  0.20429988  0.50931127     0.80000
N122        N  0.18563355  0.22282764  0.49615087    -0.78300
C123        C  0.18452822  0.20594650  0.47933432     0.82400
N124        N  0.15327136  0.17019237  0.47576989    -0.78300
C125        C  0.12262281  0.15152580  0.48870056     0.82500
N126        N  0.12442089  0.16919375  0.50536698    -0.80000
C127        C  0.25372299  0.22433214  0.43894078     0.80000
N128        N  0.22052058  0.20732739  0.45016815    -0.78300
C129        C  0.21863748  0.22524078  0.46601494     0.82400
N130        N  0.24982122  0.26028845  0.47034149    -0.78300
C131        C  0.28282604  0.27772253  0.45895928     0.82500
N132        N  0.28459575  0.25932046  0.44337819    -0.80000
C133        C  0.47158779  0.23350882  0.51483546     0.80000
N134        N  0.46980995  0.21260335  0.49961810    -0.78300
C135        C  0.46644783  0.22439757  0.48097185     0.82400
N136        N  0.46442378  0.25783056  0.47760453    -0.78300
C137        C  0.46549989  0.27913899  0.49288498     0.82500
N138        N  0.46914968  0.26635617  0.51134155    -0.80000
C139        C  0.46051924  0.18572792  0.43169099     0.80000
N140        N  0.46401330  0.21019678  0.44578292    -0.78300
C141        C  0.46391271  0.19933118  0.46512047     0.82400
N142        N  0.94621616  0.15589402  0.47276580    -0.78300
C143        C  0.94498965  0.13206470  0.45910949     0.82500
N144        N  0.45698700  0.15054271  0.43735958    -0.80000
C145        C  0.45117730  0.49189059  0.47832981     0.02000
C146        C  0.41565146  0.45560516  0.47951139     0.02000
C147        C  0.41689368  0.42064296  0.48340639     0.02000
C148        C  0.45339456  0.42191372  0.48682049     0.02000
C149        C  0.48899369  0.45865942  0.48584184     0.02000
C150        C  0.48732070  0.49364036  0.48304878     0.02000
C151        C  0.26218302  0.35681235  0.76519525     0.80000
N152        N  0.26691694  0.38035659  0.77971944    -0.78300
C153        C  0.26615790  0.36813483  0.79877677     0.82400
N154        N  0.25996182  0.33148798  0.80346041    -0.78300
C155        C  0.25385012  0.30685511  0.78906337     0.82500
N156        N  0.25508356  0.31995867  0.76999640    -0.80000
C157        C  0.28910644  0.41903429  0.84509740     0.80000
N158        N  0.28484495  0.39303851  0.83180382    -0.78300
C159        C  0.26994148  0.39447682  0.81385563     0.82400
N160        N  0.25974086  0.42201620  0.80924897    -0.78300
C161        C  0.26331017  0.44791144  0.82221848     0.82500
N162        N  0.27844313  0.44630614  0.84017129    -0.80000
C163        C  0.04623611  0.36819363  0.77798729     0.80000
N164        N  0.01718674  0.34462002  0.79092469    -0.78300
C165        C  0.01435166  0.35834409  0.80813945     0.82400
N166        N  0.04005378  0.39609774  0.81218948    -0.78300
C167        C  0.06893502  0.41993739  0.79913191     0.82500
N168        N  0.07165152  0.40549026  0.78218428    -0.80000
C169        C  0.45525480  0.31904738  0.85395298     0.80000
N170        N  0.98461480  0.34264916  0.84068826    -0.78300
C171        C  0.98304376  0.33265285  0.82203654     0.82400
N172        N  0.45120500  0.30114439  0.81584116    -0.78300
C173        C  0.42009657  0.27818967  0.82808659     0.82500
N174        N  0.42290729  0.28747258  0.84714569    -0.80000
C175        C  0.02720471  0.13587587  0.85060874     0.80000
N176        N  0.05727178  0.13043925  0.84533937    -0.78300
C177        C  0.06381244  0.12779384  0.82621589     0.82400
N178        N  0.04034216  0.13136739  0.81234050    -0.78300
C179        C  0.01027771  0.13660659  0.81735016     0.82500
N180        N  0.00329648  0.13817086  0.83651464    -0.80000
C181        C  0.46656862  0.14145695  0.76745123     0.80000
N182        N  0.43088729  0.13522054  0.77304088    -0.78300
C183        C  0.41907575  0.12693378  0.79212412     0.82400
N184        N  0.44367031  0.12487985  0.80570707    -0.78300
C185        C  0.47941133  0.13080300  0.80043191     0.82500
N186        N  0.49081881  0.13882931  0.78125326    -0.80000
C187        C  0.23353397  0.14969428  0.80133155     0.02000
C188        C  0.19642359  0.11388667  0.80170537     0.02000
C189        C  0.19544491  0.07711666  0.80357692     0.02000
C190        C  0.23080659  0.07641185  0.80688233     0.02000
C191        C  0.26707079  0.11160701  0.80582777     0.02000
C192        C  0.26838842  0.14792797  0.80500872     0.02000
Zr193      Zr  0.47381840  0.47818195  0.93587771     2.17500
O194        O  0.02377970  0.50282176  0.91216487    -0.51600
O195        O  0.41830733  0.45555731  0.91403755    -0.74800
O196        O  0.47703139  0.42629650  0.92100153    -0.81600
O197        O  0.48359902  0.07699625  0.94249168    -0.83300
O198        O  0.45482981  0.37431015  0.94330742    -0.78900
O199        O  0.48173831  0.03628275  0.91990316    -0.90600
O200        O  0.36295440  0.43356984  0.93212292    -0.76500
O201        O  0.42182104  0.42071537  0.95170233    -0.86000
O202        O  0.43269345  0.49815724  0.95025669    -0.85700
O203        O  0.50574631  0.45489858  0.95863868    -0.72500
O204        O  0.01356602  0.02339646  0.96072079    -0.84600
Zr205      Zr  0.45339173  0.46613727  0.01114748     2.26400
Zr206      Zr  0.45285863  0.39769602  0.97518705     2.06300
Zr207      Zr  0.46601832  0.03960706  0.97423786     2.10000
Zr208      Zr  0.38125017  0.44085909  0.96638111     1.78800
O209        O  0.02381909  0.10376479  0.98084052    -0.93400
O210        O  0.33109780  0.37238236  0.96433374    -0.41200
O211        O  0.42119343  0.48954328  0.98871989    -0.77900
O212        O  0.41042262  0.41610976  0.99022087    -0.96500
O213        O  0.49467500  0.44683474  0.99668748    -0.89800
O214        O  0.50531130  0.52403047  0.99546728    -0.92700
C215        C  0.38101028  0.44057290  0.91567488     1.01100
C216        C  0.98738404  0.06854443  0.92624968     1.14000
C217        C  0.46662248  0.39068565  0.92606222     1.04800
O218        O  0.39451232  0.33292393  0.97540507    -0.94800
O219        O  0.44397748  0.36514678  0.00789455    -0.90600
O220        O  0.44023528  0.40613606  0.02836505    -0.83700
C221        C  0.44016673  0.37471062  0.02495998     1.11400
O222        O  0.09265993  0.53270910  0.95377114    -0.96800
Zr223      Zr  0.04468496  0.50675614  0.98051636     1.88900
O224        O  0.50750544  0.48135977  0.03323583    -0.73500
O225        O  0.49810467  0.37241210  0.97845585    -0.52700
O226        O  0.08851344  0.47978526  0.98183082    -0.97400
O227        O  0.08837185  0.06389073  0.99293703    -0.54600
O228        O  0.06313258  0.50344444  0.01440554    -0.74000
C229        C  0.04498943  0.49221451  0.03093714     0.98400
O230        O  0.40304943  0.44827845  0.03618823    -0.62800
O231        O  0.41735395  0.06046095  0.97022542    -0.57600
O232        O  0.44236772  0.00504417  0.02856995    -0.94300
O233        O  0.45919936  0.05754862  0.00715378    -0.92700
O234        O  0.34542075  0.47615064  0.96119804    -0.93100
O235        O  0.32864860  0.42248759  0.99013748    -0.91900
C236        C  0.44962856  0.03989671  0.02434279     1.17200
H237        H  0.41540104  0.00395947  0.94162092     0.33100
H238        H  0.38996900  0.39401874  0.99782710     0.44000
H239        H  0.01189375  0.03208916  0.00894358     0.37500
H240        H  0.52222260  0.44791039  0.95171896     0.34000
H241        H  0.30854826  0.37300548  0.95785836     0.25800
H242        H  0.48097089  0.34364088  0.97864369     0.31700
H243        H  0.07533492  0.45635831  0.97408739     0.37600
H244        H  0.32188243  0.45869700  0.95364050     0.32100
H245        H  0.39448164  0.04078935  0.97823261     0.31000
H246        H  0.03889806  0.11261989  0.96836586     0.32700
H247        H  0.08990573  0.08064593  0.98121128     0.31600
H248        H  0.32998749  0.40298799  0.99944661     0.35600
H249        H  0.38268406  0.42096036  0.03396169     0.28400
H250        H  0.01173443  0.50449953  0.89951689     0.32600
H251        H  0.09093961  0.55519940  0.94771311     0.35400
H252        H  0.42820494  0.08461521  0.97741408     0.28000
H253        H  0.41551011  0.44659989  0.04870113     0.40900
H254        H  0.40455024  0.31532959  0.97240387     0.31000
H255        H  0.34140074  0.36252369  0.95443876     0.38600
H256        H  0.11443398  0.06560523  0.99358455     0.30400
H257        H  0.51247324  0.37963901  0.96580325     0.30500
H258        H  0.04179726  0.53033574  0.91523481     0.30800
Zr259      Zr  0.12059987  0.28880156  0.67900340     2.17500
O260        O  0.14468697  0.25616312  0.70214387    -0.51600
O261        O  0.09354637  0.31187766  0.70285963    -0.74800
O262        O  0.18065042  0.33428966  0.69442021    -0.81600
O263        O  0.02170822  0.19877119  0.67532169    -0.83300
O264        O  0.22141066  0.38281579  0.67238965    -0.78900
O265        O  0.07419985  0.22811823  0.69562686    -0.90600
O266        O  0.06678483  0.34427558  0.68642978    -0.76500
O267        O  0.13413638  0.35143973  0.66581504    -0.86000
O268        O  0.06010199  0.27930446  0.66559829    -0.85700
O269        O  0.17245600  0.30829023  0.65563090    -0.72500
O270        O  0.10180358  0.23964311  0.65595830    -0.84600
Zr271      Zr  0.10651023  0.31253546  0.60463746     2.26400
Zr272      Zr  0.18481013  0.37063214  0.64160947     2.06300
Zr273      Zr  0.04135964  0.23113033  0.64216064     2.10000
Zr274      Zr  0.07378841  0.34123886  0.65175227     1.78800
O275        O  0.02438194  0.16387984  0.63803656    -0.93400
O276        O  0.10706711  0.41210450  0.65293254    -0.41200
O277        O  0.05418582  0.29344611  0.62780401    -0.77900
O278        O  0.12427011  0.36165309  0.62762366    -0.96500
O279        O  0.16730749  0.32271073  0.61786452    -0.89800
O280        O  0.09235425  0.25003696  0.61828971    -0.92700
C281        C  0.07569171  0.33162587  0.70226864     1.01100
C282        C  0.03873177  0.20225554  0.69206798     1.14000
C283        C  0.21301085  0.36529692  0.68956971     1.04800
O284        O  0.20279739  0.43636140  0.64995420    -0.94800
O285        O  0.20162825  0.41041555  0.61036691    -0.90600
O286        O  0.15452616  0.37347359  0.58885041    -0.83700
C287        C  0.18569419  0.40483706  0.59330043     1.11400
O288        O  0.18325461  0.23351112  0.65480606    -0.96800
Zr289      Zr  0.15289091  0.26030968  0.63194048     1.88900
O290        O  0.13108975  0.28685005  0.58089451    -0.73500
O291        O  0.25288741  0.38885078  0.63528369    -0.52700
O292        O  0.22167450  0.28751168  0.62262819    -0.97400
O293        O  0.12655139  0.19040033  0.62952348    -0.54600
O294        O  0.15596089  0.25270458  0.59752938    -0.74000
C295        C  0.14703032  0.26539291  0.58168781     0.98400
O296        O  0.08600972  0.34540622  0.57961590    -0.62800
O297        O  0.97306175  0.21392070  0.64708281    -0.57600
O298        O  0.04541716  0.26885327  0.58951612    -0.94300
O299        O  0.00716949  0.21669700  0.61043426    -0.92700
O300        O  0.00591878  0.31992771  0.66071436    -0.93100
O301        O  0.03927292  0.36441289  0.62960891    -0.91900
C302        C  0.01474249  0.23575886  0.59360878     1.17200
H303        H  0.03997603  0.27050969  0.67557526     0.33100
H304        H  0.12816989  0.38570846  0.62105465     0.44000
H305        H  0.08328190  0.23099670  0.60845857     0.37500
H306        H  0.19586378  0.31111914  0.66203320     0.34000
H307        H  0.08813229  0.41720168  0.65958977     0.25800
H308        H  0.25211963  0.37724832  0.62278931     0.31700
H309        H  0.23681641  0.30598868  0.63277038     0.37600
H310        H  0.00650895  0.34340221  0.66533191     0.32100
H311        H  0.47289087  0.23722811  0.63396324     0.31000
H312        H  0.04209704  0.15948105  0.64704675     0.32700
H313        H  0.10512569  0.18242580  0.61982780     0.31600
H314        H  0.05478828  0.37274704  0.61727510     0.35600
H315        H  0.08127438  0.33103015  0.56760543     0.28400
H316        H  0.14960765  0.26946250  0.71452910     0.32600
H317        H  0.20245327  0.25558885  0.66237531     0.35400
H318        H  0.96958133  0.23274256  0.63823127     0.28000
H319        H  0.05971777  0.34009714  0.58382704     0.40900
H320        H  0.23081861  0.45274329  0.64596915     0.31000
H321        H  0.12855521  0.41860061  0.66246396     0.38600
H322        H  0.11279488  0.17817306  0.64215982     0.30400
H323        H  0.26662989  0.41740419  0.63205095     0.30500
H324        H  0.17109323  0.26322203  0.69719769     0.30800
C325        C  0.32980765  0.11863448  0.81877544    -0.06000
C326        C  0.30395251  0.11069567  0.80299212    -0.00100
C327        C  0.31525868  0.10577615  0.78434578    -0.08700
C328        C  0.35226483  0.10978936  0.78213713    -0.06100
C329        C  0.37931669  0.11974629  0.79745905    -0.00100
C330        C  0.36769571  0.12358814  0.81641569    -0.08600
C331        C  0.39450920  0.13313829  0.83407991     0.61800
H332        H  0.32035334  0.12220065  0.83284165     0.12500
H333        H  0.36027863  0.10571398  0.76779042     0.12500
C334        C  0.29097578  0.09754445  0.76582504     0.62000
F335        F  0.42979461  0.16729505  0.83007359    -0.23100
F336        F  0.40139082  0.10259496  0.83877644    -0.20500
F337        F  0.37791417  0.13843745  0.85039637    -0.20100
F338        F  0.28435082  0.06259210  0.75905684    -0.20200
F339        F  0.31164869  0.12717950  0.75163996    -0.20500
F340        F  0.25521377  0.09496403  0.76834030    -0.23200
C341        C  0.98994106  0.19220778  0.71633559    -0.06000
C342        C  0.01499349  0.17986792  0.70953671    -0.00100
C343        C  0.02356864  0.15496313  0.72181624    -0.08700
C344        C  0.00741807  0.14414353  0.74089396    -0.06100
C345        C  0.47984037  0.15364497  0.74672222    -0.00100
C346        C  0.47487058  0.18284084  0.73595868    -0.08600
C347        C  0.45647438  0.20423980  0.74484912     0.61800
H348        H  0.48708669  0.21707617  0.70851056     0.12500
H349        H  0.01398690  0.12539006  0.75053572     0.12500
C350        C  0.05003360  0.14034816  0.71491454     0.62000
F351        F  0.46547706  0.23854489  0.73402732    -0.23100
F352        F  0.47044073  0.21431049  0.76353894    -0.20500
F353        F  0.41597516  0.18053425  0.74547820    -0.20100
F354        F  0.08845488  0.17087960  0.71331625    -0.20200
F355        F  0.03764135  0.12477291  0.69685785    -0.20500
F356        F  0.04924027  0.11149919  0.72780983    -0.23200
C357        C  0.14383788  0.09986158  0.82496344    -0.06000
C358        C  0.15965003  0.11438909  0.80605310    -0.00100
C359        C  0.14203277  0.13110461  0.79345662    -0.08700
C360        C  0.11121933  0.13493347  0.80087872    -0.06100
C361        C  0.09610990  0.12135337  0.82001120    -0.00100
C362        C  0.11116585  0.10113728  0.83188421    -0.08600
C363        C  0.09217095  0.07902086  0.85120436     0.61800
H364        H  0.15797111  0.08789782  0.83458895     0.12500
H365        H  0.09896256  0.14916042  0.79142914     0.12500
C366        C  0.15368433  0.14556280  0.77228550     0.62000
F367        F  0.10792758  0.05619317  0.85823899    -0.23100
F368        F  0.05223469  0.05436366  0.84860776    -0.20500
F369        F  0.09796770  0.10479481  0.86526156    -0.20100
F370        F  0.18442600  0.14171274  0.76595761    -0.20200
F371        F  0.16461839  0.18468104  0.77000516    -0.20500
F372        F  0.12165520  0.12460107  0.76043960    -0.23200
C373        C  0.03310136  0.12691555  0.90563467    -0.06000
C374        C  0.99425495  0.09730537  0.90983766    -0.00100
C375        C  0.96476559  0.08933408  0.89561439    -0.08700
C376        C  0.97627517  0.10612926  0.87651022    -0.06100
C377        C  0.01603541  0.13149917  0.87156986    -0.00100
C378        C  0.04410388  0.14562596  0.88678603    -0.08600
C379        C  0.08529320  0.18035674  0.88383930     0.61800
H380        H  0.05534283  0.13421178  0.91684078     0.12500
H381        H  0.95458402  0.09676585  0.86498869     0.12500
C382        C  0.42091794  0.06279042  0.90011105     0.62000
F383        F  0.09310200  0.20593238  0.89839952    -0.23100
F384        F  0.08959805  0.20073183  0.86601218    -0.20500
F385        F  0.11253576  0.16795384  0.88500091    -0.20100
F386        F  0.41259867  0.06857020  0.91872224    -0.20200
F387        F  0.41328268  0.02484200  0.89952233    -0.20500
F388        F  0.39608419  0.06799563  0.88713433    -0.23200
C389        C  0.34959305  0.22770680  0.83412096    -0.06000
C390        C  0.38176023  0.24506884  0.82092289    -0.00100
C391        C  0.37554904  0.23017833  0.80190906    -0.08700
C392        C  0.33775698  0.19955472  0.79717181    -0.06100
C393        C  0.30589672  0.18330625  0.81040128    -0.00100
C394        C  0.31221428  0.19715874  0.82945572    -0.08600
C395        C  0.28205244  0.17989801  0.84610661     0.61800
H396        H  0.35330880  0.23764279  0.84867548     0.12500
H397        H  0.33289965  0.18692016  0.78312814     0.12500
C398        C  0.40807567  0.24529315  0.78659896     0.62000
F399        F  0.29551241  0.16391559  0.86077362    -0.23100
F400        F  0.24522229  0.15110106  0.84081269    -0.20500
F401        F  0.27794649  0.20929986  0.85360431    -0.20100
F402        F  0.39570519  0.22436014  0.76992886    -0.20200
F403        F  0.43937317  0.24202893  0.79415004    -0.20500
F404        F  0.42022959  0.28387820  0.78097786    -0.23200
C405        C  0.49462697  0.36146843  0.88043998    -0.06000
C406        C  0.45765345  0.33137712  0.87450245    -0.00100
C407        C  0.42494753  0.31717919  0.88770392    -0.08700
C408        C  0.43061450  0.33483879  0.90564124    -0.06100
C409        C  0.46672926  0.36692979  0.91040976    -0.00100
C410        C  0.49973653  0.37961958  0.89802171    -0.08600
C411        C  0.03929162  0.41748419  0.90053345     0.61800
H412        H  0.01906618  0.37656762  0.86945148     0.12500
H413        H  0.40589844  0.32586835  0.91545522     0.12500
C414        C  0.38368328  0.28536507  0.88286543     0.62000
F415        F  0.06764944  0.40719433  0.89776008    -0.23100
F416        F  0.04342677  0.42969291  0.91933941    -0.20500
F417        F  0.04622793  0.44836055  0.88739827    -0.20100
F418        F  0.38382780  0.25107864  0.88034604    -0.20200
F419        F  0.37087636  0.29701831  0.86611968    -0.20500
F420        F  0.35675948  0.27759760  0.89762517    -0.23200
C421        C  0.14297813  0.01456972  0.81950803    -0.06000
C422        C  0.15798038  0.03860310  0.80218885    -0.00100
C423        C  0.14192855  0.02220732  0.78399962    -0.08700
C424        C  0.11238837  0.98285123  0.78391062    -0.06100
C425        C  0.09666184  0.46203320  0.80196286    -0.00100
C426        C  0.11228043  0.47819513  0.82020509    -0.08600
C427        C  0.09570044  0.45504198  0.83957869     0.61800
H428        H  0.15567770  0.02706117  0.83325294     0.12500
H429        H  0.10042999  0.97082448  0.76991583     0.12500
C430        C  0.15554490  0.04308632  0.76396878     0.62000
F431        F  0.11675388  0.47579602  0.85537614    -0.23100
F432        F  0.09690739  0.42067237  0.84020663    -0.20500
F433        F  0.05713585  0.44645572  0.84169060    -0.20100
F434        F  0.18598121  0.08075005  0.76464937    -0.20200
F435        F  0.12436886  0.04383759  0.75447408    -0.20500
F436        F  0.16804299  0.02300189  0.75306002    -0.23200
C437        C  0.05336231  0.38039118  0.74243336    -0.06000
C438        C  0.04924679  0.35531850  0.75872923    -0.00100
C439        C  0.05295264  0.32210176  0.75645384    -0.08700
C440        C  0.05897056  0.31417538  0.73752587    -0.06100
C441        C  0.06467986  0.34009280  0.72120055    -0.00100
C442        C  0.06233680  0.37428299  0.72375196    -0.08600
C443        C  0.07172587  0.40577101  0.70743262     0.61800
H444        H  0.05094349  0.40594820  0.74468240     0.12500
H445        H  0.06084034  0.28825447  0.73549211     0.12500
C446        C  0.05408225  0.29723393  0.77401683     0.62000
F447        F  0.07367660  0.43888462  0.71421899    -0.23100
F448        F  0.04281711  0.39183950  0.69332549    -0.20500
F449        F  0.10797206  0.41705056  0.69915162    -0.20100
F450        F  0.01822386  0.27862464  0.78368301    -0.20200
F451        F  0.08313149  0.32079313  0.78671209    -0.20500
F452        F  0.06231986  0.26894848  0.76862688    -0.23200
C453        C  0.24234588  0.99553106  0.83413150    -0.06000
C454        C  0.25168054  0.47828354  0.81696393    -0.00100
C455        C  0.23810276  0.48426284  0.79812326    -0.08700
C456        C  0.22710708  0.01562428  0.79665135    -0.06100
C457        C  0.23064743  0.03896901  0.81189439    -0.00100
C458        C  0.23633671  0.02756467  0.83120147    -0.08600
C459        C  0.23561212  0.04714863  0.84940958     0.61800
H460        H  0.24769463  0.98792608  0.84893281     0.12500
H461        H  0.22094739  0.02397923  0.78223755     0.12500
C462        C  0.23156348  0.45856420  0.78124065     0.62000
F463        F  0.20687632  0.01953101  0.86214671    -0.23100
F464        F  0.22741839  0.07693731  0.84559450    -0.20500
F465        F  0.27169292  0.06218749  0.85858600    -0.20100
F466        F  0.20443061  0.42003587  0.78666315    -0.20200
F467        F  0.26688046  0.46179908  0.77583251    -0.20500
F468        F  0.21677475  0.46922184  0.76493359    -0.23200
C469        C  0.34444943  0.41886596  0.86296358    -0.06000
C470        C  0.30978004  0.42079566  0.86378420    -0.00100
C471        C  0.29719356  0.42618851  0.88195785    -0.08700
C472        C  0.32119639  0.43192143  0.89841014    -0.06100
C473        C  0.35704374  0.43204252  0.89747955    -0.00100
C474        C  0.36862876  0.42459480  0.87940466    -0.08600
C475        C  0.40623252  0.42294210  0.87704507     0.61800
H476        H  0.35345620  0.41452404  0.84895474     0.12500
H477        H  0.29989577  0.91533594  0.91308152     0.12500
C478        C  0.24404787  0.89974207  0.88537104     0.62000
F479        F  0.40792425  0.40925050  0.85918779    -0.23100
F480        F  0.40818362  0.39800914  0.89154350    -0.20500
F481        F  0.43869851  0.45996734  0.87806163    -0.20100
F482        F  0.22023269  0.86780147  0.87461555    -0.20200
F483        F  0.26395126  0.46211230  0.87736428    -0.20500
F484        F  0.23261967  0.88938282  0.90482550    -0.23200
C485        C  0.26272803  0.25263811  0.77963585    -0.06000
C486        C  0.24780428  0.26653973  0.79346349    -0.00100
C487        C  0.22697280  0.24125533  0.80999556    -0.08700
C488        C  0.22228176  0.20324703  0.81183851    -0.06100
C489        C  0.23696818  0.18933683  0.79769347    -0.00100
C490        C  0.25721456  0.21475944  0.78106524    -0.08600
C491        C  0.27344169  0.20444968  0.76391680     0.61800
H492        H  0.27941841  0.27192543  0.76728210     0.12500
H493        H  0.20747106  0.18417614  0.82459369     0.12500
C494        C  0.20969886  0.25388295  0.82566273     0.62000
F495        F  0.25710182  0.21003591  0.74673321    -0.23100
F496        F  0.26554807  0.16636850  0.76513662    -0.20500
F497        F  0.31379726  0.22921891  0.76271270    -0.20100
F498        F  0.18572665  0.26698532  0.81717856    -0.20200
F499        F  0.23979210  0.28347914  0.83565613    -0.20500
F500        F  0.18719169  0.22343801  0.83919085    -0.23200
C501        C  0.24316703  0.39245567  0.73999586    -0.06000
C502        C  0.26171485  0.37031766  0.74440703    -0.00100
C503        C  0.27636902  0.35924733  0.72874896    -0.08700
C504        C  0.26466781  0.36333468  0.70954373    -0.06100
C505        C  0.24135240  0.38054999  0.70560436    -0.00100
C506        C  0.23395307  0.39885111  0.72062001    -0.08600
C507        C  0.21072791  0.41969727  0.71679634     0.61800
H508        H  0.23313700  0.40235089  0.75180096     0.12500
H509        H  0.27047941  0.34962715  0.69785779     0.12500
C510        C  0.30097099  0.33975731  0.73204324     0.62000
F511        F  0.22414595  0.45094455  0.72853662    -0.23100
F512        F  0.17129845  0.39395125  0.72083089    -0.20500
F513        F  0.21485925  0.43426510  0.69752255    -0.20100
F514        F  0.27626877  0.29984783  0.73479566    -0.20200
F515        F  0.32508844  0.35372405  0.74814033    -0.20500
F516        F  0.32500863  0.34713040  0.71598562    -0.23200
C517        C  0.43480558  0.04184791  0.48287616    -0.06000
C518        C  0.45169689  0.02816594  0.46996102    -0.03100
C519        C  0.46801897  0.04997859  0.45196452    -0.08700
C520        C  0.46958449  0.08614430  0.44851938    -0.06100
C521        C  0.45360333  0.10044517  0.46175881    -0.00100
C522        C  0.43390148  0.07664822  0.47882783    -0.08600
C523        C  0.89642623  0.07607599  0.49346796     0.61800
H524        H  0.42188872  0.02464196  0.49634977     0.12500
H525        H  0.48323249  0.10327196  0.43504689     0.12500
C526        C  0.48283763  0.03646979  0.43548377     0.62000
F527        F  0.38822913  0.05536605  0.50589855    -0.23100
F528        F  0.38297181  0.09197298  0.48106201    -0.20500
F529        F  0.91753810  0.10749026  0.50486039    -0.20100
F530        F  0.48004926  0.50066374  0.44202489    -0.20200
F531        F  0.52202841  0.06344894  0.43161074    -0.20500
F532        F  0.46141742  0.03427651  0.41875964    -0.23200
C533        C  0.44854357  0.36341345  0.47258804    -0.06000
C534        C  0.45500522  0.38463339  0.48921296    -0.00100
C535        C  0.46510495  0.37122205  0.50692464    -0.08700
C536        C  0.46931527  0.33788351  0.50702976    -0.06100
C537        C  0.46236306  0.31595007  0.49039765    -0.00100
C538        C  0.45141541  0.32933688  0.47282844    -0.08600
C539        C  0.44315929  0.30852109  0.45419202     0.61800
H540        H  0.44202915  0.37451540  0.45904260     0.12500
H541        H  0.47764872  0.32868276  0.52068878     0.12500
C542        C  0.96579981  0.38725184  0.52577711     0.62000
F543        F  0.41289502  0.27046554  0.45751438    -0.23100
F544        F  0.47718117  0.30970962  0.44847241    -0.20500
F545        F  0.43192087  0.32569723  0.43903651    -0.20100
F546        F  0.96248565  0.42031517  0.52447878    -0.20200
F547        F  0.00310430  0.39726837  0.53234671    -0.20500
F548        F  0.93864833  0.36110602  0.53957025    -0.23200
C549        C  0.45481569  0.22552409  0.55000504    -0.06000
C550        C  0.47639325  0.22130894  0.53520531    -0.00100
C551        C  0.50474109  0.21005278  0.54048420    -0.08700
C552        C  0.00430344  0.20700849  0.56208421    -0.06100
C553        C  0.98895306  0.21904634  0.57667028    -0.00100
C554        C  0.46379908  0.22354787  0.56991852    -0.08600
C555        C  0.44211489  0.23145297  0.58537694     0.61800
H556        H  0.43251875  0.23300544  0.54576141     0.12500
H557        H  0.02805340  0.20147383  0.56604637     0.12500
C558        C  0.52882406  0.20430001  0.52532268     0.62000
F559        F  0.41097616  0.23477814  0.57751978    -0.23100
F560        F  0.96637281  0.27111970  0.59600561    -0.20500
F561        F  0.42719011  0.20094110  0.59956740    -0.20100
F562        F  0.03108596  0.22568725  0.51300552    -0.20200
F563        F  0.50434004  0.17309174  0.51437613    -0.20500
F564        F  0.04095079  0.18769992  0.53532733    -0.23200
C565        C  0.32341887  0.32031152  0.48481459    -0.06000
C566        C  0.31747394  0.31467036  0.46467391    -0.00100
C567        C  0.34442709  0.34404813  0.45100878    -0.08700
C568        C  0.37578250  0.37795005  0.45823471    -0.06100
C569        C  0.38165358  0.38349199  0.47831342    -0.00100
C570        C  0.35514856  0.35407972  0.49197131    -0.08600
C571        C  0.35811618  0.35597916  0.51401358     0.61800
H572        H  0.30318972  0.29766787  0.49526531     0.12500
H573        H  0.39731390  0.40024574  0.44816349     0.12500
C574        C  0.34062967  0.34064564  0.42894728     0.62000
F575        F  0.32400132  0.35281446  0.52134223    -0.23100
F576        F  0.38960177  0.39010131  0.51996638    -0.20500
F577        F  0.36194316  0.32503992  0.52197575    -0.20100
F578        F  0.30342062  0.33258744  0.42313613    -0.20200
F579        F  0.34731357  0.31134141  0.42366821    -0.20500
F580        F  0.36773361  0.37490452  0.41880145    -0.23200
C581        C  0.05811910  0.09593601  0.50034699    -0.06000
C582        C  0.08813423  0.11125698  0.48594677    -0.00100
C583        C  0.08422604  0.08719239  0.47042799    -0.08700
C584        C  0.05156115  0.04882508  0.47062265    -0.06100
C585        C  0.02248820  0.03361008  0.48536880    -0.00100
C586        C  0.02611221  0.05768422  0.50070427    -0.08600
C587        C  0.99598106  0.54164986  0.51758973     0.61800
H588        H  0.05953672  0.11387002  0.51195184     0.12500
H589        H  0.04820709  0.03015215  0.45901547     0.12500
C590        C  0.11353783  0.10113670  0.45353560     0.62000
F591        F  0.97907738  0.56502701  0.51750832    -0.23100
F592        F  0.01691243  0.54684595  0.53478310    -0.20500
F593        F  0.96640050  0.50297501  0.51785151    -0.20100
F594        F  0.14977858  0.10808001  0.46044862    -0.20200
F595        F  0.11703317  0.13486564  0.44428896    -0.20500
F596        F  0.10178371  0.07373558  0.43955133    -0.23200
C597        C  0.14304535  0.21283269  0.56300417    -0.06000
C598        C  0.15367009  0.25225825  0.56325743    -0.00100
C599        C  0.17058920  0.27750251  0.54632615    -0.08700
C600        C  0.17167937  0.26104828  0.52887407    -0.06100
C601        C  0.15804169  0.22081451  0.52834442    -0.00100
C602        C  0.14647043  0.19695462  0.54600789    -0.08600
C603        C  0.13812979  0.15501550  0.54739216     0.61800
H604        H  0.13143401  0.19409382  0.57626376     0.12500
H605        H  0.18224699  0.27935639  0.51544026     0.12500
C606        C  0.18836434  0.32147543  0.54681744     0.62000
F607        F  0.14429186  0.14420510  0.56620973    -0.23100
F608        F  0.16283499  0.15054986  0.53504979    -0.20500
F609        F  0.09937665  0.13015168  0.54257486    -0.20100
F610        F  0.21200842  0.33487892  0.56311238    -0.20200
F611        F  0.15878119  0.33066794  0.54751117    -0.20500
F612        F  0.21151767  0.34094733  0.53041331    -0.23200
C613        C  0.09284396  0.47495980  0.48643557    -0.06000
C614        C  0.09429097  0.45996317  0.46862425    -0.00100
C615        C  0.05949633  0.44064167  0.45750606    -0.08700
C616        C  0.02610502  0.44154049  0.46344669    -0.06100
C617        C  0.02440418  0.45661371  0.48121548    -0.00100
C618        C  0.05831722  0.47285227  0.49325105    -0.08600
C619        C  0.06594251  0.99613308  0.51370035     0.61800
H620        H  0.11934458  0.48932347  0.49505686     0.12500
H621        H  0.50134501  0.43452765  0.45403312     0.12500
C622        C  0.05655969  0.41814532  0.43975097     0.62000
F623        F  0.07930871  0.97892568  0.52774346    -0.23100
F624        F  0.03030692  0.99029604  0.52002543    -0.20500
F625        F  0.09249782  0.03588139  0.51229661    -0.20100
F626        F  0.07574614  0.39706283  0.44321167    -0.20200
F627        F  0.07297533  0.44365235  0.42352026    -0.20500
F628        F  0.51638443  0.39890274  0.43323048    -0.23200
C629        C  0.32655405  0.97050860  0.47143979    -0.06000
C630        C  0.31239254  0.46467520  0.49092620    -0.00100
C631        C  0.33138223  0.45307354  0.50584770    -0.08700
C632        C  0.36348259  0.44912339  0.50069220    -0.06100
C633        C  0.37719302  0.45468589  0.48149375    -0.00100
C634        C  0.35788806  0.96573068  0.46545005    -0.08600
C635        C  0.36820959  0.97314704  0.44383256     0.61800
H636        H  0.31238964  0.98018608  0.46047081     0.12500
H637        H  0.38041532  0.44434407  0.51206599     0.12500
C638        C  0.32016203  0.44623509  0.52744713     0.62000
F639        F  0.33553454  0.94827967  0.43329489    -0.23100
F640        F  0.39856739  0.96694281  0.43926924    -0.20500
F641        F  0.37884008  0.01135250  0.43806187    -0.20100
F642        F  0.28041771  0.41966529  0.52994716    -0.20200
F643        F  0.32983783  0.48149606  0.53485830    -0.20500
F644        F  0.34017557  0.43114427  0.53840255    -0.23200
C645        C  0.25348122  0.47701223  0.55336160    -0.06000
C646        C  0.22524291  0.47187658  0.53898052    -0.00100
C647        C  0.18528417  0.45522306  0.54509259    -0.08700
C648        C  0.17489981  0.43794998  0.56420241    -0.06100
C649        C  0.20229377  0.43566723  0.57705723    -0.00100
C650        C  0.24276016  0.45782997  0.57212612    -0.08600
C651        C  0.27422454  0.45910561  0.58584902     0.61800
H652        H  0.28416203  0.49394250  0.54929447     0.12500
H653        H  0.14427785  0.42298030  0.56876532     0.12500
C654        C  0.15301337  0.45384816  0.53181569     0.62000
F655        F  0.31168145  0.48203957  0.57789665    -0.23100
F656        F  0.26802639  0.42172850  0.58971492    -0.20500
F657        F  0.27283558  0.47462110  0.60313450    -0.20100
F658        F  0.14564291  0.42895693  0.51701229    -0.20200
F659        F  0.16427225  0.49107095  0.52395726    -0.20500
F660        F  0.11795481  0.44030370  0.54193221    -0.23200
C661        C  0.42950098  0.21624326  0.38320516    -0.06000
C662        C  0.42823229  0.18804592  0.37152130    -0.00100
C663        C  0.44569792  0.16579207  0.37811703    -0.08700
C664        C  0.46078192  0.17005793  0.39717205    -0.06100
C665        C  0.45654285  0.19389397  0.41023238    -0.00100
C666        C  0.44332527  0.21962901  0.40254713    -0.08600
C667        C  0.44255574  0.24970329  0.41458866     0.61800
H668        H  0.41605401  0.23305276  0.37767117     0.12500
H669        H  0.47297455  0.15201995  0.40248318     0.12500
C670        C  0.44601241  0.13585183  0.36545710     0.62000
F671        F  0.43096598  0.27309924  0.40390391    -0.23100
F672        F  0.48020807  0.27351285  0.42125652    -0.20500
F673        F  0.41631259  0.23114129  0.42998285    -0.20100
F674        F  0.46237196  0.15346178  0.34735161    -0.20200
F675        F  0.40798256  0.10562471  0.36295723    -0.20500
F676        F  0.46779321  0.11998393  0.37376970    -0.23200
C677        C  0.23032106  0.20182458  0.40625099    -0.06000
C678        C  0.25595544  0.20574507  0.42159607    -0.00100
C679        C  0.28373150  0.19330145  0.41984914    -0.08700
C680        C  0.28557409  0.17801347  0.40225959    -0.06100
C681        C  0.26103277  0.17547025  0.38647190    -0.00100
C682        C  0.23244411  0.18713167  0.38850014    -0.08600
C683        C  0.20384206  0.18378254  0.37231575     0.61800
H684        H  0.20938812  0.21165442  0.40810407     0.12500
H685        H  0.30734630  0.16924297  0.40046011     0.12500
C686        C  0.31125355  0.19611679  0.43644423     0.62000
F687        F  0.17454255  0.19016556  0.37885133    -0.23100
F688        F  0.18580223  0.14662648  0.36549127    -0.20500
F689        F  0.22363469  0.21128346  0.35713178    -0.20100
F690        F  0.28986051  0.17907112  0.45357731    -0.20200
F691        F  0.33831527  0.23491300  0.43902318    -0.20500
F692        F  0.33176625  0.17717350  0.43267751    -0.23200
C693        C  0.18866885  0.52162063  0.38341175    -0.06000
C694        C  0.21241465  0.00899731  0.37692864    -0.00100
C695        C  0.21730208  0.97974404  0.38755941    -0.08700
C696        C  0.20744402  0.97225606  0.40766400    -0.06100
C697        C  0.18768043  0.48979877  0.41514144    -0.00100
C698        C  0.18039425  0.51661437  0.40356629    -0.08600
C699        C  0.16670979  0.54212639  0.41245415     0.61800
H700        H  0.18396733  0.54244308  0.37441299     0.12500
H701        H  0.20988557  0.94941745  0.41605744     0.12500
C702        C  0.23279602  0.95669571  0.37779556     0.62000
F703        F  0.16885104  0.57093446  0.39908648    -0.23100
F704        F  0.19028515  0.56045248  0.42813787    -0.20500
F705        F  0.12802986  0.51974885  0.41867939    -0.20100
F706        F  0.27158839  0.98124447  0.37207561    -0.20200
F707        F  0.21041901  0.93996507  0.36153622    -0.20500
F708        F  0.23133503  0.92703609  0.39030280    -0.23200
C709        C  0.27258255  0.32095248  0.12771303    -0.06000
C710        C  0.25758626  0.30533007  0.14663079    -0.00100
C711        C  0.27594594  0.28830395  0.15846503    -0.08700
C712        C  0.30735081  0.28636735  0.15052022    -0.06100
C713        C  0.32275319  0.30234042  0.13168298    -0.00100
C714        C  0.30559519  0.32110702  0.12015101    -0.08600
C715        C  0.32138469  0.34156588  0.10009549     0.61800
H716        H  0.25749815  0.33268148  0.11863099     0.12500
H717        H  0.32031144  0.27225716  0.15952689     0.12500
C718        C  0.26507255  0.27198403  0.17946323     0.62000
F719        F  0.30270318  0.36161177  0.09299492    -0.23100
F720        F  0.31540473  0.31426279  0.08681509    -0.20500
F721        F  0.36112284  0.36865913  0.10119513    -0.20100
F722        F  0.25403198  0.23280221  0.18061835    -0.20200
F723        F  0.23494787  0.27557355  0.18680184    -0.20500
F724        F  0.29754461  0.29155399  0.19124741    -0.23200
C725        C  0.39751225  0.29718001  0.06632664    -0.06000
C726        C  0.41924876  0.32018430  0.08175783    -0.00100
C727        C  0.45278642  0.35739876  0.07767217    -0.08700
C728        C  0.46206688  0.37122193  0.05810287    -0.06100
C729        C  0.43759954  0.35043766  0.04277507    -0.00100
C730        C  0.40646286  0.31170695  0.04664318    -0.08600
C731        C  0.38248677  0.28649301  0.03024015     0.61800
H732        H  0.37235073  0.26852894  0.06988039     0.12500
H733        H  0.48636345  0.40049997  0.05466937     0.12500
C734        C  0.47622016  0.38434766  0.09376414     0.62000
F735        F  0.35439869  0.24932544  0.03725721    -0.23100
F736        F  0.40729825  0.28282808  0.01762981    -0.20500
F737        F  0.36343495  0.30340118  0.02002764    -0.20100
F738        F  0.49216083  0.36706618  0.10612018    -0.20200
F739        F  0.45182185  0.39229781  0.10441348    -0.20500
F740        F  0.50701113  0.41955823  0.08626737    -0.23200
C741        C  0.05949232  0.30270823  0.17173419    -0.06000
C742        C  0.03416083  0.29279794  0.15554962    -0.00100
C743        C  0.04770441  0.28844414  0.13729308    -0.08700
C744        C  0.08631576  0.29502022  0.13613590    -0.06100
C745        C  0.11046360  0.30312589  0.15265538    -0.00100
C746        C  0.09658005  0.30622729  0.17090726    -0.08600
C747        C  0.11811696  0.31132783  0.19023843     0.61800
H748        H  0.04991954  0.30685300  0.18563663     0.12500
H749        H  0.09759055  0.29214363  0.12245388     0.12500
C750        C  0.02163932  0.27479569  0.11940266     0.62000
F751        F  0.12326530  0.34461824  0.19834511    -0.23100
F752        F  0.15444241  0.31441884  0.18861353    -0.20500
F753        F  0.09562921  0.27944350  0.20299243    -0.20100
F754        F  0.01057816  0.30164166  0.11322355    -0.20200
F755        F  0.98850044  0.23896289  0.12391554    -0.20500
F756        F  0.04080949  0.27062790  0.10381139    -0.23200
C757        C  0.42484614  0.22168157  0.23409269    -0.06000
C758        C  0.40145934  0.23497602  0.24191483    -0.00100
C759        C  0.39313197  0.26111299  0.23061259    -0.08700
C760        C  0.40745438  0.27196295  0.21129822    -0.06100
C761        C  0.42984532  0.25763743  0.20313077    -0.00100
C762        C  0.43834661  0.23154252  0.21464730    -0.08600
C763        C  0.45896540  0.21165720  0.20636487     0.61800
H764        H  0.42989420  0.20089822  0.24293621     0.12500
H765        H  0.40111708  0.29193721  0.20252548     0.12500
C766        C  0.36900220  0.27784275  0.23820101     0.62000
F767        F  0.45253468  0.17894199  0.21795234    -0.23100
F768        F  0.49910290  0.23742325  0.20536638    -0.20500
F769        F  0.44488641  0.19929942  0.18791622    -0.20100
F770        F  0.36153113  0.27001266  0.25811500    -0.20200
F771        F  0.33348997  0.26240718  0.22845992    -0.20500
F772        F  0.38926134  0.31804359  0.23469556    -0.23200
C773        C  0.26493584  0.40414370  0.13180737    -0.06000
C774        C  0.25806844  0.38024416  0.14914642    -0.00100
C775        C  0.28505107  0.39552585  0.16482635    -0.08700
C776        C  0.31629659  0.43406468  0.16276729    -0.06100
C777        C  0.31940569  0.45938426  0.14681512    -0.00100
C778        C  0.29438352  0.44403507  0.13057454    -0.08600
C779        C  0.29732305  0.46971388  0.11253675     0.61800
H780        H  0.24514261  0.39184555  0.11966579     0.12500
H781        H  0.33671871  0.44575243  0.17476364     0.12500
C782        C  0.28158327  0.37466766  0.18466860     0.62000
F783        F  0.26988104  0.44872440  0.09856184    -0.23100
F784        F  0.33438401  0.48596099  0.10417807    -0.20500
F785        F  0.29080376  0.49923209  0.11766595    -0.20100
F786        F  0.31114304  0.36539079  0.18634436    -0.20200
F787        F  0.24563439  0.34138913  0.18777415    -0.20500
F788        F  0.28620012  0.39910509  0.19933941    -0.23200
C789        C  0.35396806  0.08445725  0.19394076    -0.06000
C790        C  0.36799320  0.05816286  0.19536818    -0.00100
C791        C  0.37202264  0.04302678  0.21396342    -0.08700
C792        C  0.35976291  0.05317890  0.23060849    -0.06100
C793        C  0.34379232  0.07820918  0.22943362    -0.00100
C794        C  0.34140207  0.09478130  0.21054889    -0.08600
C795        C  0.32509731  0.12244302  0.20735774     0.61800
H796        H  0.35142546  0.09560403  0.17943234     0.12500
H797        H  0.36208507  0.04071233  0.24476879     0.12500
C798        C  0.39351564  0.53012785  0.20920690     0.62000
F799        F  0.32753380  0.13568148  0.18792166    -0.23100
F800        F  0.34625099  0.15493287  0.21812274    -0.20500
F801        F  0.28577892  0.10335693  0.21281348    -0.20100
F802        F  0.42689275  0.54893620  0.19743958    -0.20200
F803        F  0.36857905  0.49348384  0.20257721    -0.20500
F804        F  0.40499360  0.52537547  0.22799983    -0.23200
C805        C  0.06996317  0.18916867  0.12073192    -0.06000
C806        C  0.03902069  0.16927886  0.13440731    -0.00100
C807        C  0.04490973  0.18279314  0.15377950    -0.08700
C808        C  0.08208246  0.21413911  0.15850574    -0.06100
C809        C  0.11247883  0.23361856  0.14460661    -0.00100
C810        C  0.10583145  0.22180842  0.12513775    -0.08600
C811        C  0.13380808  0.24320551  0.10790401     0.61800
H812        H  0.06599009  0.18020907  0.10592268     0.12500
H813        H  0.08734235  0.22516049  0.17297283     0.12500
C814        C  0.51204989  0.16778864  0.16906583     0.62000
F815        F  0.11477215  0.25436184  0.09386637    -0.23100
F816        F  0.14367707  0.21810685  0.09979516    -0.20500
F817        F  0.16811256  0.27636781  0.11264334    -0.20100
F818        F  0.50373801  0.13000507  0.17412636    -0.20200
F819        F  0.47834181  0.16763390  0.16252255    -0.20500
F820        F  0.52373716  0.18825457  0.18590158    -0.23200
C821        C  0.48722585  0.08974038  0.04728972    -0.06000
C822        C  0.45006349  0.06129963  0.04123464    -0.00100
C823        C  0.41733126  0.04753903  0.05404040    -0.08700
C824        C  0.42332036  0.06262886  0.07263641    -0.06100
C825        C  0.46104342  0.08953815  0.07940576    -0.00100
C826        C  0.49378358  0.10354033  0.06625249    -0.08600
C827        C  0.02776012  0.14250332  0.06849068     0.61800
H828        H  0.00230897  0.10619054  0.03479610     0.12500
H829        H  0.39798831  0.05181348  0.08227341     0.12500
C830        C  0.39394366  0.55851711  0.03488339     0.62000
F831        F  0.05032957  0.15744691  0.05153445    -0.23100
F832        F  0.04821435  0.13157243  0.08171962    -0.20500
F833        F  0.53911851  0.16772161  0.07454128    -0.20100
F834        F  0.37686642  0.51826779  0.03547823    -0.20200
F835        F  0.40101202  0.57307761  0.01557499    -0.20500
F836        F  0.36767583  0.56771011  0.04277584    -0.23200
C837        C  0.19143658  0.21420192  0.13940237    -0.06000
C838        C  0.18197771  0.22920452  0.15523036    -0.00100
C839        C  0.16608511  0.20445268  0.17256042    -0.08700
C840        C  0.16137351  0.16692683  0.17346506    -0.06100
C841        C  0.17011192  0.15122142  0.15775669    -0.00100
C842        C  0.18530060  0.17549705  0.14017794    -0.08600
C843        C  0.19463620  0.16100880  0.12221300     0.61800
H844        H  0.20269467  0.23285497  0.12613615     0.12500
H845        H  0.14951294  0.14922117  0.18695926     0.12500
C846        C  0.15325395  0.21490890  0.19093787     0.62000
F847        F  0.21121474  0.19003395  0.10729635    -0.23100
F848        F  0.16032909  0.13052911  0.11519100    -0.20500
F849        F  0.22112384  0.14844557  0.12692720    -0.20100
F850        F  0.11387660  0.18830947  0.19467111    -0.20200
F851        F  0.15816242  0.25186709  0.18970677    -0.20500
F852        F  0.17484809  0.21247221  0.20671474    -0.23200
C853        C  0.14318184  0.05438138  0.24001344    -0.06000
C854        C  0.16938405  0.04093613  0.24490890    -0.00100
C855        C  0.17997332  0.02334907  0.23070704    -0.08700
C856        C  0.16871389  0.02511502  0.21124571    -0.06100
C857        C  0.14764946  0.04419076  0.20581121    -0.00100
C858        C  0.13098435  0.05514175  0.22059561    -0.08600
C859        C  0.10112165  0.06836449  0.21663702     0.61800
H860        H  0.13453727  0.06707004  0.25110106     0.12500
H861        H  0.18016908  0.01555087  0.19990999     0.12500
C862        C  0.20674276  0.00671386  0.23573784     0.62000
F863        F  0.06926158  0.04723491  0.22921881    -0.23100
F864        F  0.08687342  0.06244449  0.19773772    -0.20500
F865        F  0.11808396  0.10760944  0.21997391    -0.20100
F866        F  0.19204046  0.98082494  0.25199148    -0.20200
F867        F  0.24403241  0.03654076  0.23975798    -0.20500
F868        F  0.20978266  0.98702732  0.22048638    -0.23200
C869        C  0.16510694  0.37691806  0.12542409    -0.06000
C870        C  0.18114782  0.37704981  0.14402438    -0.00100
C871        C  0.19043936  0.40895948  0.15573461    -0.08700
C872        C  0.18285609  0.43859346  0.14834527    -0.06100
C873        C  0.16353762  0.43666945  0.13044616    -0.00100
C874        C  0.15387363  0.40437563  0.11883144    -0.08600
C875        C  0.13012498  0.39681817  0.10007115     0.61800
H876        H  0.15951908  0.35328170  0.11635812     0.12500
H877        H  0.19088078  0.46300770  0.15733546     0.12500
C878        C  0.20731470  0.41386304  0.17615315     0.62000
F879        F  0.12184462  0.36198938  0.09240647    -0.23100
F880        F  0.15098910  0.42647211  0.08595476    -0.20500
F881        F  0.09439568  0.39427151  0.10385744    -0.20100
F882        F  0.21128122  0.38285119  0.18318937    -0.20200
F883        F  0.18279160  0.41776953  0.18885854    -0.20500
F884        F  0.24392842  0.44739777  0.17610455    -0.23200
C885        C  0.05397994  0.50049675  0.06644966    -0.06000
C886        C  0.06762086  0.49429909  0.04901886    -0.00100
C887        C  0.10028827  0.48799808  0.04970122    -0.08700
C888        C  0.11920201  0.49026622  0.06773870    -0.06100
C889        C  0.10600522  0.49743696  0.08503029    -0.00100
C890        C  0.07198046  0.50144012  0.08452638    -0.08600
C891        C  0.05577521  0.01351107  0.10545033     0.61800
H892        H  0.02871513  0.50466014  0.06583279     0.12500
H893        H  0.14474249  0.48656310  0.06847372     0.12500
C894        C  0.11450072  0.47759111  0.03180352     0.62000
F895        F  0.02173417  0.01511496  0.10177767    -0.23100
F896        F  0.08514405  0.05053875  0.10979520    -0.20500
F897        F  0.04834911  0.47599505  0.11694929    -0.20100
F898        F  0.13150827  0.50949356  0.01844665    -0.20200
F899        F  0.08313259  0.44638217  0.02326482    -0.20500
F900        F  0.14241819  0.46685362  0.03653498    -0.23200
C901        C  0.12154629  0.99294403  0.10745568     0.80000
N902        N  0.13290823  0.96597903  0.11192662    -0.78300
C903        C  0.15294190  0.96679291  0.12858866     0.82400
N904        N  0.16059797  0.99507834  0.14114967    -0.78300
C905        C  0.14803457  0.52213902  0.13463616     0.82500
N906        N  0.13291520  0.52418638  0.11691594    -0.80000
C907        C  0.14298457  0.55397778  0.18337021     0.80000
N908        N  0.14971036  0.59063572  0.17885632    -0.78300
C909        C  0.15510182  0.60590378  0.16007526     0.82400
N910        N  0.15428495  0.58349970  0.14551949    -0.78300
C911        C  0.14936956  0.54711207  0.14998544     0.82500
N912        N  0.14383998  0.53267465  0.16889008    -0.80000
C913        C  0.46528643  0.60638157  0.09759163     0.80000
N914        N  0.49629736  0.63758434  0.10524698    -0.78300
C915        C  0.49685277  0.64535221  0.12429478     0.82400
N916        N  0.46488532  0.62131910  0.13565997    -0.78300
C917        C  0.43316556  0.58990223  0.12827643     0.82500
N918        N  0.43348880  0.58225402  0.10919212    -0.80000
C919        C  0.36725162  0.55211156  0.17167032     0.80000
N920        N  0.39626014  0.57646447  0.15881017    -0.78300
C921        C  0.39981836  0.56370315  0.14137379     0.82400
N922        N  0.38044915  0.01846777  0.14209010    -0.78300
C923        C  0.35185074  0.99380312  0.15513098     0.82500
N924        N  0.34907795  0.00692627  0.17252309    -0.80000
C925        C  0.43756966  0.76820567  0.18162375     0.80000
N926        N  0.47491883  0.77712804  0.17798872    -0.78300
C927        C  0.49057713  0.78727238  0.15966654     0.82400
N928        N  0.46769240  0.78855364  0.14463387    -0.78300
C929        C  0.43006543  0.78007562  0.14805829     0.82500
N930        N  0.41525844  0.77017291  0.16665138    -0.80000
C931        C  0.39275564  0.79267658  0.09895060     0.80000
N932        N  0.41564225  0.78781352  0.11295060    -0.78300
C933        C  0.40551026  0.78346698  0.13225628     0.82400
N934        N  0.37287311  0.78435583  0.13739614    -0.78300
C935        C  0.35002324  0.78946067  0.12374251     0.82500
N936        N  0.36004210  0.79320635  0.10461024    -0.80000
C937        C  0.18439431  0.83999852  0.15265119     0.02000
C938        C  0.14774500  0.80491887  0.15356398     0.02000
C939        C  0.14576860  0.76875083  0.15180043     0.02000
C940        C  0.17988632  0.76544862  0.15325767     0.02000
C941        C  0.21753064  0.80037793  0.15246934     0.02000
C942        C  0.21971006  0.83790171  0.15238434     0.02000
Zr943      Zr  0.29814220  0.60296139  0.34487696     2.17500
O944        O  0.30390592  0.57581598  0.37707577    -0.51600
O945        O  0.27539904  0.63108085  0.36861000    -0.74800
O946        O  0.36394391  0.63707144  0.35767305    -0.81600
O947        O  0.19839948  0.51932818  0.34121919    -0.83300
O948        O  0.39911803  0.69368635  0.33907307    -0.78900
O949        O  0.25805274  0.53336117  0.35190364    -0.90600
O950        O  0.25478301  0.66954418  0.35279765    -0.76500
O951        O  0.31567846  0.66676909  0.33177591    -0.86000
O952        O  0.23872105  0.59829644  0.33224304    -0.85700
O953        O  0.34864121  0.61849815  0.32085085    -0.72500
O954        O  0.27581633  0.55448254  0.32095402    -0.84600
Zr955      Zr  0.28364805  0.63055295  0.27066499     2.26400
Zr956      Zr  0.36511161  0.68245529  0.30747305     2.06300
Zr957      Zr  0.21656650  0.55032480  0.30800432     2.10000
Zr958      Zr  0.25672739  0.66169842  0.31837909     1.78800
O959        O  0.19251052  0.48120902  0.30435538    -0.93400
O960        O  0.28764508  0.73177962  0.32224329    -0.41200
O961        O  0.23303627  0.61402553  0.29427348    -0.77900
O962        O  0.30653116  0.67934356  0.29418721    -0.96500
O963        O  0.34285279  0.63533834  0.28318323    -0.89800
O964        O  0.26590137  0.56647254  0.28350674    -0.92700
C965        C  0.26207932  0.65486459  0.36839641     1.01100
C966        C  0.22102760  0.51718411  0.35453404     1.14000
C967        C  0.39404798  0.67102573  0.35442710     1.04800
O968        O  0.38619683  0.75097559  0.31102981    -0.94800
O969        O  0.38672674  0.71307651  0.27431290    -0.90600
O970        O  0.33276345  0.69052991  0.25474772    -0.83700
C971        C  0.36939113  0.71268332  0.25799578     1.11400
O972        O  0.34266641  0.53286414  0.31882217    -0.96800
Zr973      Zr  0.32507245  0.57167522  0.29622102     1.88900
O974        O  0.31075612  0.60882714  0.24619505    -0.73500
O975        O  0.43252372  0.69580139  0.30434209    -0.52700
O976        O  0.39468224  0.59250339  0.29300295    -0.97400
O977        O  0.29370034  0.50338209  0.28820782    -0.54600
O978        O  0.33761427  0.57547794  0.26119693    -0.74000
C979        C  0.32947390  0.59015748  0.24571395     0.98400
O980        O  0.26186548  0.66676735  0.24856571    -0.62800
O981        O  0.14997789  0.53876695  0.31194786    -0.57600
O982        O  0.22313509  0.58703081  0.25476985    -0.94300
O983        O  0.18240403  0.53757239  0.27646993    -0.92700
O984        O  0.18747651  0.63815342  0.32513964    -0.93100
O985        O  0.23075062  0.69317259  0.29574376    -0.91900
C986        C  0.19104361  0.55540371  0.25935141     1.17200
H987        H  0.21914834  0.59066740  0.34242234     0.33100
H988        H  0.31280976  0.70428088  0.28782558     0.44000
H989        H  0.25586244  0.54788023  0.27343890     0.37500
H990        H  0.37169457  0.61863169  0.32637677     0.34000
H991        H  0.30814681  0.73732899  0.33226145     0.25800
H992        H  0.43266981  0.68342168  0.29225850     0.31700
H993        H  0.40442223  0.61248397  0.28191972     0.37600
H994        H  0.17339573  0.62424682  0.31343397     0.32100
H995        H  0.13422532  0.51082711  0.31644260     0.31000
H996        H  0.20606016  0.47376280  0.31468049     0.32700
H997        H  0.29424440  0.50375706  0.27374355     0.31600
H998        H  0.22192987  0.67685259  0.28429186     0.35600
H999        H  0.26074685  0.65707265  0.23545092     0.28400
H1000       H  0.31460896  0.59768068  0.38589384     0.32600
H1001       H  0.31928166  0.51755189  0.32745844     0.35400
H1002       H  0.15128616  0.55310862  0.32351992     0.28000
H1003       H  0.23405682  0.65712974  0.25216193     0.40900
H1004       H  0.41181509  0.76156664  0.31780118     0.31000
H1005       H  0.30267886  0.74448035  0.30995738     0.38600
H1006       H  0.26555866  0.49232980  0.29158961     0.30400
H1007       H  0.44826330  0.72425152  0.30093829     0.30500
H1008       H  0.32517975  0.56953061  0.37578755     0.30800
C1009       C  0.23934632  0.97353183  0.51979693     0.80000
N1010       N  0.21731119  0.97693313  0.50517989    -0.78300
C1011       C  0.22629080  0.97721291  0.48616491     0.82400
N1012       N  0.25581585  0.47379489  0.48009369    -0.78300
C1013       C  0.28027300  0.96987894  0.49604887     0.82500
N1014       N  0.27098057  0.97043839  0.51498357    -0.80000
C1015       C  0.18387011  0.98459284  0.43822373     0.80000
N1016       N  0.14846712  0.97850652  0.44411745    -0.78300
C1017       C  0.13811325  0.97195787  0.46325494     0.82400
N1018       N  0.16407326  0.97223668  0.47671671    -0.78300
C1019       C  0.19956058  0.97784132  0.47107959     0.82500
N1020       N  0.20949723  0.98378824  0.45174048    -0.80000
C1021       C  0.15568112  0.69703965  0.51117815     0.80000
N1022       N  0.18593534  0.71587640  0.49821400    -0.78300
C1023       C  0.18486897  0.69956296  0.48122388     0.82400
N1024       N  0.15330567  0.66446774  0.47720781    -0.78300
C1025       C  0.12260526  0.64558518  0.48999655     0.82500
N1026       N  0.12428920  0.66242223  0.50690242    -0.80000
C1027       C  0.25215370  0.71813652  0.44007379     0.80000
N1028       N  0.21990762  0.70087030  0.45192769    -0.78300
C1029       C  0.21851767  0.71900806  0.46776021     0.82400
N1030       N  0.24921705  0.75469664  0.47152599    -0.78300
C1031       C  0.28130476  0.77259436  0.45951710     0.82500
N1032       N  0.28275525  0.75388848  0.44391400    -0.80000
C1033       C  0.46238584  0.72859393  0.51450525     0.80000
N1034       N  0.46129895  0.70813850  0.49922607    -0.78300
C1035       C  0.45708106  0.71948286  0.48059598     0.82400
N1036       N  0.45390386  0.75212616  0.47725075    -0.78300
C1037       C  0.45408731  0.77282725  0.49254427     0.82500
N1038       N  0.45835310  0.76052987  0.51104570    -0.80000
C1039       C  0.45130219  0.67998194  0.43148643     0.80000
N1040       N  0.45351922  0.70442559  0.44536214    -0.78300
C1041       C  0.45531147  0.69492624  0.46477776     0.82400
N1042       N  0.96443679  0.66527916  0.46968975    -0.78300
C1043       C  0.95779026  0.63878149  0.45646985     0.82500
N1044       N  0.45021822  0.64605026  0.43754701    -0.80000
C1045       C  0.45137389  0.99085097  0.47582742     0.02000
C1046       C  0.41540433  0.95492633  0.47699674     0.02000
C1047       C  0.41555467  0.91941109  0.48076465     0.02000
C1048       C  0.45160434  0.91981797  0.48422550     0.02000
C1049       C  0.48793169  0.95595608  0.48317757     0.02000
C1050       C  0.48718830  0.99154390  0.48042333     0.02000
C1051       C  0.25478181  0.85343843  0.76598878     0.80000
N1052       N  0.25626412  0.87534316  0.78067545    -0.78300
C1053       C  0.25680163  0.86345691  0.79958901     0.82400
N1054       N  0.25542236  0.82873706  0.80401858    -0.78300
C1055       C  0.25256415  0.80559954  0.78943106     0.82500
N1056       N  0.25231148  0.81838214  0.77047344    -0.80000
C1057       C  0.28015804  0.91408035  0.84559961     0.80000
N1058       N  0.27540275  0.88815472  0.83228868    -0.78300
C1059       C  0.25878318  0.88871475  0.81479330     0.82400
N1060       N  0.24747215  0.91567540  0.81054622    -0.78300
C1061       C  0.25208848  0.94196483  0.82360904     0.82500
N1062       N  0.26883345  0.94097279  0.84115968    -0.80000
C1063       C  0.04900596  0.86262669  0.77782276     0.80000
N1064       N  0.02150278  0.83928899  0.79149907    -0.78300
C1065       C  0.02006749  0.85349460  0.80878224     0.82400
N1066       N  0.04546474  0.89161008  0.81211593    -0.78300
C1067       C  0.07276323  0.91551708  0.79838652     0.82500
N1068       N  0.07412234  0.90064135  0.78126954    -0.80000
C1069       C  0.45233317  0.81784630  0.85318381     0.80000
N1070       N  0.99266536  0.83752864  0.84196644    -0.78300
C1071       C  0.98901586  0.82863569  0.82302681     0.82400
N1072       N  0.45015283  0.80113713  0.81511916    -0.78300
C1073       C  0.41875205  0.77793569  0.82693763     0.82500
N1074       N  0.42047131  0.78652904  0.84601087    -0.80000
C1075       C  0.03100176  0.63928776  0.84903907     0.80000
N1076       N  0.06283771  0.63624719  0.84442846    -0.78300
C1077       C  0.07079180  0.63402996  0.82546617     0.82400
N1078       N  0.04660415  0.63488472  0.81117160    -0.78300
C1079       C  0.01489725  0.63773995  0.81559890     0.82500
N1080       N  0.00692959  0.63946388  0.83452202    -0.80000
C1081       C  0.47123244  0.64894819  0.76624861     0.80000
N1082       N  0.43506600  0.64029785  0.77211526    -0.78300
C1083       C  0.42412701  0.63268020  0.79122622     0.82400
N1084       N  0.45036622  0.63364459  0.80474786    -0.78300
C1085       C  0.48687512  0.64192343  0.79909776     0.82500
N1086       N  0.49715765  0.64924102  0.77983020    -0.80000
C1087       C  0.23597996  0.64996820  0.79930780     0.02000
C1088       C  0.19918093  0.61430877  0.80096393     0.02000
C1089       C  0.19824616  0.57766550  0.80310232     0.02000
C1090       C  0.23382740  0.57687073  0.80459252     0.02000
C1091       C  0.26987587  0.61220964  0.80282730     0.02000
C1092       C  0.27081997  0.64829919  0.80214666     0.02000
Zr1093     Zr  0.46836614  0.97512181  0.93590528     2.17500
O1094       O  0.03137169  0.00212631  0.91498991    -0.51600
O1095       O  0.41366283  0.95412256  0.91334107    -0.74800
O1096       O  0.46902409  0.92376327  0.91945997    -0.81600
O1097       O  0.48894350  0.58189956  0.94014650    -0.83300
O1098       O  0.45217404  0.87231684  0.94166043    -0.78900
O1099       O  0.48988418  0.54001739  0.91916651    -0.90600
O1100       O  0.35770583  0.92690212  0.93133002    -0.76500
O1101       O  0.41717958  0.91585816  0.95072296    -0.86000
O1102       O  0.42628185  0.99285973  0.95109004    -0.85700
O1103       O  0.50072115  0.95110681  0.95801386    -0.72500
O1104       O  0.01153948  0.52842590  0.95750205    -0.84600
Zr1105     Zr  0.44694373  0.95678497  0.01145763     2.26400
Zr1106     Zr  0.44868576  0.89264511  0.97380177     2.06300
Zr1107     Zr  0.47360334  0.54688580  0.97236672     2.10000
Zr1108     Zr  0.37521059  0.93358550  0.96577331     1.78800
O1109       O  0.02344120  0.60855728  0.97665438    -0.93400
O1110       O  0.32743148  0.86440908  0.96319529    -0.41200
O1111       O  0.41387495  0.98033018  0.98938173    -0.77900
O1112       O  0.40490608  0.90868972  0.98927819    -0.96500
O1113       O  0.48968692  0.93957474  0.99652601    -0.89800
O1114       O  0.49824228  0.01604466  0.99658185    -0.92700
C1115       C  0.37607107  0.93688245  0.91481728     1.01100
C1116       C  0.98156187  0.56858067  0.92371437     1.14000
C1117       C  0.46101434  0.88880765  0.92435859     1.04800
O1118       O  0.39475399  0.82557363  0.97199673    -0.94800
O1119       O  0.43428681  0.85565481  0.00529717    -0.90600
O1120       O  0.42849098  0.89367126  0.02696322    -0.83700
C1121       C  0.42732545  0.86233080  0.02241248     1.11400
O1122       O  0.09795564  0.02767903  0.96170819    -0.96800
Zr1123     Zr  0.04197549  0.99729467  0.98436900     1.88900
O1124       O  0.50285300  0.97454349  0.03319007    -0.73500
O1125       O  0.49709280  0.87123233  0.97556616    -0.52700
O1126       O  0.07926610  0.96305609  0.98532349    -0.97400
O1127       O  0.09253792  0.57449321  0.98659974    -0.54600
O1128       O  0.05516639  0.99095919  0.01894749    -0.74000
C1129       C  0.03538255  0.98056826  0.03504631     0.98400
O1130       O  0.40008751  0.93960253  0.03825075    -0.62800
O1131       O  0.42310561  0.56551914  0.96957869    -0.57600
O1132       O  0.45607002  0.51941160  0.02697163    -0.94300
O1133       O  0.47026030  0.56966298  0.00435504    -0.92700
O1134       O  0.33842012  0.96694406  0.95726511    -0.93100
O1135       O  0.32171023  0.91549375  0.98887574    -0.91900
C1136       C  0.46325331  0.55399456  0.02194365     1.17200
H1137       H  0.42189459  0.50861011  0.94048616     0.33100
H1138       H  0.38442019  0.88595596  0.99640344     0.44000
H1139       H  0.01603192  0.54221426  0.00569475     0.37500
H1140       H  0.51743233  0.94488668  0.95081488     0.34000
H1141       H  0.33991061  0.85507586  0.95420719     0.25800
H1142       H  0.50608858  0.87436603  0.98931495     0.31700
H1143       H  0.07809034  0.95431082  0.97197086     0.37600
H1144       H  0.31220584  0.94610130  0.95318530     0.32100
H1145       H  0.43764464  0.59426363  0.97042732     0.31000
H1146       H  0.03203582  0.60890410  0.99040212     0.32700
H1147       H  0.08826644  0.57763226  0.00040451     0.31600
H1148       H  0.33038153  0.90791152  0.00126468     0.35600
H1149       H  0.37558396  0.91642317  0.03416144     0.28400
H1150       H  0.02044905  0.00243231  0.90182186     0.32600
H1151       H  0.08714436  0.01546078  0.94917100     0.35400
H1152       H  0.41430153  0.56150637  0.95581925     0.28000
H1153       H  0.40983445  0.92987425  0.04948989     0.40900
H1154       H  0.38438480  0.82399504  0.95854920     0.31000
H1155       H  0.32738455  0.85161514  0.97611498     0.38600
H1156       H  0.08315505  0.59016179  0.97883973     0.30400
H1157       H  0.48138742  0.84256899  0.97448069     0.30500
H1158       H  0.04807657  0.03003255  0.91773386     0.30800
Zr1159     Zr  0.11337369  0.78059847  0.67860417     2.17500
O1160       O  0.14203390  0.75240021  0.70171938    -0.51600
O1161       O  0.08272173  0.80048096  0.70177324    -0.74800
O1162       O  0.16721790  0.83034083  0.69593027    -0.81600
O1163       O  0.01751843  0.68702063  0.67289892    -0.83300
O1164       O  0.21081878  0.87789957  0.67436272    -0.78900
O1165       O  0.06770402  0.71795139  0.69427956    -0.90600
O1166       O  0.05810881  0.83464281  0.68514949    -0.76500
O1167       O  0.12464414  0.84247620  0.66541335    -0.86000
O1168       O  0.05266628  0.76867581  0.66432695    -0.85700
O1169       O  0.16844399  0.80384597  0.65675681    -0.72500
O1170       O  0.09932543  0.73288474  0.65538456    -0.84600
Zr1171     Zr  0.10547209  0.80714321  0.60473739     2.26400
Zr1172     Zr  0.17832034  0.86554297  0.64278313     2.06300
Zr1173     Zr  0.03901092  0.72219900  0.64050394     2.10000
Zr1174     Zr  0.06434992  0.83012508  0.65049221     1.78800
O1175       O  0.02670915  0.65684595  0.63528356    -0.93400
O1176       O  0.08445728  0.89869524  0.65349225    -0.41200
O1177       O  0.05012343  0.78396805  0.62634506    -0.77900
O1178       O  0.11816056  0.85477241  0.62775053    -0.96500
O1179       O  0.16616040  0.81934642  0.61886188    -0.89800
O1180       O  0.09295741  0.74495552  0.61816882    -0.92700
C1181       C  0.06590703  0.82114733  0.70105444     1.01100
C1182       C  0.03343730  0.69037519  0.68992541     1.14000
C1183       C  0.19977265  0.86153355  0.69159856     1.04800
O1184       O  0.18773484  0.92855378  0.65099043    -0.94800
O1185       O  0.19880528  0.90597519  0.61202750    -0.90600
O1186       O  0.15427088  0.86882120  0.58962629    -0.83700
C1187       C  0.18460057  0.90045838  0.59465147     1.11400
O1188       O  0.18020740  0.72915111  0.65682503    -0.96800
Zr1189     Zr  0.15332740  0.75730297  0.63270016     1.88900
O1190       O  0.13203612  0.78377049  0.58125744    -0.73500
O1191       O  0.24887105  0.89390202  0.63736365    -0.52700
O1192       O  0.22383757  0.78954521  0.62623211    -0.97400
O1193       O  0.13627680  0.68993009  0.62852130    -0.54600
O1194       O  0.15747188  0.75057339  0.59816466    -0.74000
C1195       C  0.14810720  0.76255342  0.58220263     0.98400
O1196       O  0.07960290  0.83710903  0.58093858    -0.62800
O1197       O  0.96898831  0.70025052  0.64291190    -0.57600
O1198       O  0.05084583  0.75949672  0.58747690    -0.94300
O1199       O  0.00834884  0.70873304  0.60803354    -0.92700
O1200       O  0.99406156  0.80007443  0.65716792    -0.93100
O1201       O  0.03085360  0.85014996  0.62593949    -0.91900
C1202       C  0.01939914  0.72688861  0.59105153     1.17200
H1203       H  0.03172073  0.75849369  0.67396717     0.33100
H1204       H  0.12163663  0.87860158  0.62109419     0.44000
H1205       H  0.08563479  0.72624567  0.60822075     0.37500
H1206       H  0.19147520  0.80736429  0.66388432     0.34000
H1207       H  0.09541231  0.91184782  0.64050549     0.25800
H1208       H  0.26123358  0.91860405  0.64417272     0.31700
H1209       H  0.23608536  0.80785538  0.63678101     0.37600
H1210       H  0.99173050  0.81738163  0.66619359     0.32100
H1211       H  0.45491475  0.68601896  0.63768045     0.31000
H1212       H  0.05199084  0.65794741  0.63843175     0.32700
H1213       H  0.15862150  0.69206332  0.62102449     0.31600
H1214       H  0.03763811  0.84415176  0.61328728     0.35600
H1215       H  0.08325527  0.82940809  0.56801502     0.28400
H1216       H  0.14017505  0.76117712  0.71467485     0.32600
H1217       H  0.15960896  0.71618467  0.66714756     0.35400
H1218       H  0.96705250  0.71562292  0.65323248     0.28000
H1219       H  0.05071064  0.82310543  0.58304365     0.40900
H1220       H  0.16151961  0.92291728  0.65547289     0.31000
H1221       H  0.05955897  0.89912380  0.65460193     0.38600
H1222       H  0.11411330  0.67992305  0.61920062     0.30400
H1223       H  0.25612902  0.87664105  0.64525385     0.30500
H1224       H  0.17057273  0.76634997  0.69858199     0.30800
C1225       C  0.33259755  0.62114277  0.81656682    -0.06000
C1226       C  0.30708883  0.61176358  0.80056084    -0.00100
C1227       C  0.31911674  0.60613398  0.78230855    -0.08700
C1228       C  0.35605561  0.60958142  0.78094381    -0.06100
C1229       C  0.38324629  0.62231861  0.79632624    -0.00100
C1230       C  0.37101775  0.62735311  0.81477624    -0.08600
C1231       C  0.39801420  0.64021815  0.83234665     0.61800
H1232       H  0.32282695  0.62596581  0.83020188     0.12500
H1233       H  0.36433401  0.60397230  0.76705232     0.12500
C1234       C  0.29630147  0.59923285  0.76330304     0.62000
F1235       F  0.43125617  0.67598831  0.82781810    -0.23100
F1236       F  0.40869776  0.61254536  0.83769150    -0.20500
F1237       F  0.37987408  0.64428835  0.84841058    -0.20100
F1238       F  0.29006472  0.56484878  0.75597229    -0.20200
F1239       F  0.31818354  0.62985578  0.74976136    -0.20500
F1240       F  0.26039297  0.59671461  0.76528804    -0.23200
C1241       C  0.97940011  0.67046238  0.71276146    -0.06000
C1242       C  0.00953785  0.66441425  0.70669589    -0.00100
C1243       C  0.02288351  0.64429135  0.71970409    -0.08700
C1244       C  0.00842964  0.63468842  0.73915214    -0.06100
C1245       C  0.48169289  0.65660222  0.74519563    -0.00100
C1246       C  0.46860741  0.67710726  0.73205916    -0.08600
C1247       C  0.44233386  0.69258918  0.73840439     0.61800
H1248       H  0.47503482  0.70307226  0.70269358     0.12500
H1249       H  0.01961033  0.62034876  0.74924339     0.12500
C1250       C  0.05189578  0.63211940  0.71359952     0.62000
F1251       F  0.43870192  0.71660514  0.72388916    -0.23100
F1252       F  0.45803521  0.71424155  0.75466453    -0.20500
F1253       F  0.40492308  0.66178084  0.74266861    -0.20100
F1254       F  0.08675896  0.65240262  0.72363976    -0.20200
F1255       F  0.05996939  0.63884684  0.69370450    -0.20500
F1256       F  0.03625112  0.59248235  0.71812503    -0.23200
C1257       C  0.14913426  0.60390045  0.82502094    -0.06000
C1258       C  0.16323386  0.61571287  0.80566496    -0.00100
C1259       C  0.14586611  0.63228984  0.79287758    -0.08700
C1260       C  0.11716241  0.63895894  0.80043863    -0.06100
C1261       C  0.10345715  0.62787191  0.81988844    -0.00100
C1262       C  0.11841192  0.60815318  0.83222070    -0.08600
C1263       C  0.10173972  0.59039569  0.85253691     0.61800
H1264       H  0.16326639  0.59207907  0.83474545     0.12500
H1265       H  0.10484760  0.65273615  0.79071160     0.12500
C1266       C  0.15432767  0.64180549  0.77110931     0.62000
F1267       F  0.11637238  0.56700903  0.86021684    -0.23100
F1268       F  0.06118977  0.56713355  0.85170694    -0.20500
F1269       F  0.11156911  0.61974078  0.86514833    -0.20100
F1270       F  0.18665890  0.64040902  0.76510737    -0.20200
F1271       F  0.16076170  0.67899117  0.76610548    -0.20500
F1272       F  0.12191322  0.61515241  0.76102588    -0.23200
C1273       C  0.02709098  0.62869348  0.90457233    -0.06000
C1274       C  0.98872823  0.59686639  0.90713671    -0.00100
C1275       C  0.96227472  0.58633339  0.89127737    -0.08700
C1276       C  0.97698293  0.60349722  0.87265906    -0.06100
C1277       C  0.01674311  0.63193141  0.86952119    -0.00100
C1278       C  0.04150087  0.64715031  0.88592986    -0.08600
C1279       C  0.08282837  0.68222973  0.88475913     0.61800
H1280       H  0.04693175  0.63731110  0.91693291     0.12500
H1281       H  0.95759981  0.59225241  0.86026483     0.12500
C1282       C  0.42846181  0.55640951  0.89507067     0.62000
F1283       F  0.08515625  0.70973078  0.89702976    -0.23100
F1284       F  0.09327892  0.70001671  0.86613185    -0.20500
F1285       F  0.10955634  0.67081105  0.89094056    -0.20100
F1286       F  0.41541677  0.55734959  0.91350676    -0.20200
F1287       F  0.42761923  0.52143740  0.89353846    -0.20500
F1288       F  0.40267501  0.55838413  0.88149574    -0.23200
C1289       C  0.34905882  0.72713255  0.83212823    -0.06000
C1290       C  0.38149632  0.74522705  0.81922883    -0.00100
C1291       C  0.37658570  0.73154122  0.79999223    -0.08700
C1292       C  0.33931391  0.70104788  0.79473031    -0.06100
C1293       C  0.30747163  0.68338843  0.80792373    -0.00100
C1294       C  0.31252634  0.69635480  0.82712015    -0.08600
C1295       C  0.28174578  0.67882488  0.84348916     0.61800
H1296       H  0.35196935  0.73636071  0.84679214     0.12500
H1297       H  0.33489435  0.68954846  0.78039548     0.12500
C1298       C  0.40998175  0.74743821  0.78510657     0.62000
F1299       F  0.29653992  0.66691027  0.85935248    -0.23100
F1300       F  0.24666152  0.64711183  0.83851264    -0.20500
F1301       F  0.27390899  0.70712902  0.84922245    -0.20100
F1302       F  0.39860151  0.72727459  0.76818004    -0.20200
F1303       F  0.44087283  0.74383404  0.79299292    -0.20500
F1304       F  0.42240403  0.78621740  0.77981283    -0.23200
C1305       C  0.49064415  0.85647070  0.88079868    -0.06000
C1306       C  0.45341033  0.82911371  0.87367653    -0.00100
C1307       C  0.41935222  0.81653665  0.88573104    -0.08700
C1308       C  0.42368397  0.83578346  0.90289855    -0.06100
C1309       C  0.46029416  0.86558628  0.90857522    -0.00100
C1310       C  0.49461491  0.87487632  0.89816412    -0.08600
C1311       C  0.04341115  0.92400407  0.89816814     0.61800
H1312       H  0.02295019  0.88180034  0.86757251     0.12500
H1313       H  0.39818477  0.82894998  0.91170548     0.12500
C1314       C  0.37853121  0.78371768  0.88094914     0.62000
F1315       F  0.04296488  0.95274182  0.88574753    -0.23100
F1316       F  0.07490107  0.91971984  0.89306025    -0.20500
F1317       F  0.04956628  0.93584585  0.91711988    -0.20100
F1318       F  0.37978648  0.74970715  0.87939024    -0.20200
F1319       F  0.36552321  0.79362702  0.86375558    -0.20500
F1320       F  0.35110837  0.77619371  0.89542133    -0.23200
C1321       C  0.14433503  0.51697852  0.82007661    -0.06000
C1322       C  0.16046906  0.53978981  0.80248081    -0.00100
C1323       C  0.14305311  0.52390727  0.78448889    -0.08700
C1324       C  0.11097863  0.48604837  0.78472784    -0.06100
C1325       C  0.09953469  0.95810966  0.80099626    -0.00100
C1326       C  0.11452309  0.97442588  0.81929514    -0.08600
C1327       C  0.10213938  0.94964883  0.83845064     0.61800
H1328       H  0.15783860  0.52935751  0.83372053     0.12500
H1329       H  0.09812679  0.47435025  0.77079345     0.12500
C1330       C  0.15770146  0.54351396  0.76429001     0.62000
F1331       F  0.12331282  0.97057744  0.85416053    -0.23100
F1332       F  0.10824279  0.91827367  0.83744399    -0.20500
F1333       F  0.06277566  0.93629900  0.84207327    -0.20100
F1334       F  0.18989597  0.58028371  0.76454981    -0.20200
F1335       F  0.12780415  0.54615011  0.75446723    -0.20500
F1336       F  0.16802725  0.52105846  0.75393606    -0.23200
C1337       C  0.04982206  0.87251918  0.74207650    -0.06000
C1338       C  0.04898340  0.84871069  0.75835398    -0.00100
C1339       C  0.05020688  0.81422397  0.75558070    -0.08700
C1340       C  0.05198229  0.80480050  0.73638529    -0.06100
C1341       C  0.05575037  0.83002869  0.72007678    -0.00100
C1342       C  0.05383988  0.86433477  0.72289329    -0.08600
C1343       C  0.05771616  0.89333049  0.70615121     0.61800
H1344       H  0.04845842  0.89852404  0.74464367     0.12500
H1345       H  0.05257455  0.77831610  0.73404937     0.12500
C1346       C  0.05357909  0.78944179  0.77258583     0.62000
F1347       F  0.05659994  0.92515366  0.71265102    -0.23100
F1348       F  0.02695386  0.87536862  0.69322565    -0.20500
F1349       F  0.09331875  0.90738383  0.69651222    -0.20100
F1350       F  0.02057326  0.77351386  0.78446930    -0.20200
F1351       F  0.08663510  0.81251145  0.78336285    -0.20500
F1352       F  0.05723361  0.75883090  0.76628647    -0.23200
C1353       C  0.25394517  0.50211229  0.83185718    -0.06000
C1354       C  0.24158369  0.97328593  0.81870515    -0.00100
C1355       C  0.23197298  0.98267997  0.79956198    -0.08700
C1356       C  0.23075672  0.51570803  0.79489668    -0.06100
C1357       C  0.23445729  0.53987838  0.80981710    -0.00100
C1358       C  0.24392538  0.53134765  0.82891069    -0.08600
C1359       C  0.24302519  0.55111663  0.84696860     0.61800
H1360       H  0.26300311  0.49761924  0.84636648     0.12500
H1361       H  0.22284204  0.52235872  0.78050180     0.12500
C1362       C  0.22660466  0.95886811  0.78203678     0.62000
F1363       F  0.21884547  0.52280055  0.86097028    -0.23100
F1364       F  0.22859263  0.57617974  0.84338488    -0.20500
F1365       F  0.28053453  0.57170473  0.85450167    -0.20100
F1366       F  0.19644358  0.92083843  0.78584624    -0.20200
F1367       F  0.26122274  0.95940323  0.77795619    -0.20500
F1368       F  0.21660889  0.97360829  0.76538314    -0.23200
C1369       C  0.34166685  0.92516904  0.86120549    -0.06000
C1370       C  0.30281140  0.91673842  0.86348929    -0.00100
C1371       C  0.28701789  0.91184822  0.88239468    -0.08700
C1372       C  0.31178750  0.91797712  0.89860534    -0.06100
C1373       C  0.35183362  0.92871828  0.89653025    -0.00100
C1374       C  0.36686845  0.93163446  0.87727855    -0.08600
C1375       C  0.40911495  0.94204305  0.87317509     0.61800
H1376       H  0.35255527  0.92808333  0.84644187     0.12500
H1377       H  0.31245431  0.43772193  0.91211265     0.12500
C1378       C  0.25888534  0.42632664  0.88425033     0.62000
F1379       F  0.41533162  0.93945989  0.85362472    -0.23100
F1380       F  0.41789179  0.91666087  0.88396460    -0.20500
F1381       F  0.43477282  0.98010806  0.87783462    -0.20100
F1382       F  0.22906852  0.39697053  0.87400191    -0.20200
F1383       F  0.23811467  0.93037471  0.87930687    -0.20500
F1384       F  0.24705446  0.42015633  0.90368658    -0.23200
C1385       C  0.26416719  0.75351093  0.77915993    -0.06000
C1386       C  0.24911805  0.76634042  0.79350612    -0.00100
C1387       C  0.22883536  0.74023428  0.80985795    -0.08700
C1388       C  0.22515832  0.70274631  0.81113551    -0.06100
C1389       C  0.23915047  0.68956932  0.79632852    -0.00100
C1390       C  0.25839923  0.71554995  0.77973326    -0.08600
C1391       C  0.27204669  0.70533577  0.76155413     0.61800
H1392       H  0.28035217  0.77339383  0.76689154     0.12500
H1393       H  0.21127887  0.68333185  0.82389847     0.12500
C1394       C  0.21074207  0.75123382  0.82586698     0.62000
F1395       F  0.25208210  0.70962779  0.74549584    -0.23100
F1396       F  0.26546279  0.66767769  0.76245325    -0.20500
F1397       F  0.31191969  0.73090602  0.75855440    -0.20100
F1398       F  0.18639157  0.76420503  0.81774595    -0.20200
F1399       F  0.24032293  0.78035193  0.83632251    -0.20500
F1400       F  0.18823306  0.71975175  0.83888096    -0.23200
C1401       C  0.22721281  0.88355533  0.74284198    -0.06000
C1402       C  0.25029350  0.86562689  0.74561499    -0.00100
C1403       C  0.26628849  0.85855218  0.72899861    -0.08700
C1404       C  0.25427991  0.86500880  0.71030449    -0.06100
C1405       C  0.22647289  0.87716837  0.70798912    -0.00100
C1406       C  0.21489199  0.88934014  0.72421588    -0.08600
C1407       C  0.18754303  0.90607375  0.72265657     0.61800
H1408       H  0.21610521  0.89049629  0.75540884     0.12500
H1409       H  0.26259938  0.85575858  0.69757160     0.12500
C1410       C  0.29371361  0.84196436  0.73068951     0.62000
F1411       F  0.20529861  0.94170274  0.73107329    -0.23100
F1412       F  0.15270704  0.88088194  0.73256578    -0.20500
F1413       F  0.17895038  0.91217552  0.70348083    -0.20100
F1414       F  0.27246054  0.80276801  0.73654808    -0.20200
F1415       F  0.32305240  0.86181549  0.74405651    -0.20500
F1416       F  0.31163739  0.84525376  0.71293204    -0.23200
C1417       C  0.43379663  0.54220646  0.48479458    -0.06000
C1418       C  0.45081274  0.52846323  0.47202675    -0.03100
C1419       C  0.46684944  0.54964550  0.45384623    -0.08700
C1420       C  0.46731521  0.58505596  0.44987630    -0.06100
C1421       C  0.45035301  0.59889062  0.46270816    -0.00100
C1422       C  0.43156677  0.57604923  0.48013968    -0.08600
C1423       C  0.91099822  0.58834963  0.49243613     0.61800
H1424       H  0.42170273  0.52575003  0.49854994     0.12500
H1425       H  0.48060818  0.60181342  0.43626702     0.12500
C1426       C  0.48244454  0.53631957  0.43764976     0.62000
F1427       F  0.38458629  0.55434837  0.50659918    -0.23100
F1428       F  0.38131337  0.59256700  0.48204755    -0.20500
F1429       F  0.93682022  0.61939100  0.50317005    -0.20100
F1430       F  0.47941522  0.00025272  0.43948092    -0.20200
F1431       F  0.52140714  0.56406260  0.43372788    -0.20500
F1432       F  0.46094464  0.53307506  0.42083089    -0.23200
C1433       C  0.44287804  0.85937266  0.47088802    -0.06000
C1434       C  0.45139285  0.88187974  0.48715881    -0.00100
C1435       C  0.45897550  0.86760002  0.50532027    -0.08700
C1436       C  0.45952281  0.83233250  0.50611763    -0.06100
C1437       C  0.45155048  0.80967732  0.48974180    -0.00100
C1438       C  0.44143358  0.82309960  0.47191855    -0.08600
C1439       C  0.42937232  0.80009701  0.45384792     0.61800
H1440       H  0.43759336  0.87087021  0.45709441     0.12500
H1441       H  0.46637880  0.82256050  0.52003887     0.12500
C1442       C  0.97991780  0.89270124  0.52495499     0.62000
F1443       F  0.39992490  0.76218968  0.45860595    -0.23100
F1444       F  0.46199718  0.80070797  0.44641928    -0.20500
F1445       F  0.41496209  0.81565486  0.43938965    -0.20100
F1446       F  0.97131159  0.92246261  0.52456648    -0.20200
F1447       F  0.01875155  0.90732180  0.53028537    -0.20500
F1448       F  0.95627999  0.86475317  0.53922274    -0.23200
C1449       C  0.44792709  0.72009626  0.55015319    -0.06000
C1450       C  0.46962412  0.71765817  0.53475463    -0.00100
C1451       C  0.50033027  0.70924401  0.53929751    -0.08700
C1452       C  0.01508064  0.70325818  0.55893653    -0.06100
C1453       C  0.99596083  0.71117809  0.57350729    -0.00100
C1454       C  0.45859331  0.71863432  0.56986985    -0.08600
C1455       C  0.43584974  0.72285193  0.58620546     0.61800
H1456       H  0.42388274  0.72537315  0.54656478     0.12500
H1457       H  0.03782680  0.69658161  0.56348074     0.12500
C1458       C  0.52545266  0.70637051  0.52362165     0.62000
F1459       F  0.40295288  0.72395431  0.57927789    -0.23100
F1460       F  0.97128106  0.76079367  0.59372585    -0.20500
F1461       F  0.42342978  0.69124435  0.59966815    -0.20100
F1462       F  0.05822739  0.74501252  0.51367304    -0.20200
F1463       F  0.50251170  0.67520965  0.51234223    -0.20500
F1464       F  0.06547981  0.70129078  0.53294394    -0.23200
C1465       C  0.32336693  0.81742285  0.48431534    -0.06000
C1466       C  0.31513561  0.81092179  0.46440240    -0.00100
C1467       C  0.33844281  0.84114489  0.45016109    -0.08700
C1468       C  0.37007626  0.87607512  0.45654442    -0.06100
C1469       C  0.37904708  0.88211334  0.47645506    -0.00100
C1470       C  0.35471782  0.85239425  0.49069220    -0.08600
C1471       C  0.35916869  0.85514841  0.51264030     0.61800
H1472       H  0.30518043  0.79451920  0.49520988     0.12500
H1473       H  0.38919071  0.89881745  0.44587463     0.12500
C1474       C  0.32977209  0.83751441  0.42839349     0.62000
F1475       F  0.32511597  0.85117946  0.52052351    -0.23100
F1476       F  0.39037533  0.88990612  0.51802105    -0.20500
F1477       F  0.36445999  0.82509591  0.52057421    -0.20100
F1478       F  0.29056074  0.82593271  0.42520156    -0.20200
F1479       F  0.33810632  0.81051446  0.42131867    -0.20500
F1480       F  0.35229627  0.87272289  0.41776332    -0.23200
C1481       C  0.05648106  0.59212270  0.50015352    -0.06000
C1482       C  0.08778341  0.60637211  0.48656945    -0.00100
C1483       C  0.08508923  0.58198010  0.47145746    -0.08700
C1484       C  0.05153736  0.54452124  0.47096362    -0.06100
C1485       C  0.02135068  0.53029276  0.48499713    -0.00100
C1486       C  0.02427764  0.55425758  0.50023274    -0.08600
C1487       C  0.99860215  0.04494523  0.51837703     0.61800
H1488       H  0.05739031  0.61029982  0.51154699     0.12500
H1489       H  0.04833050  0.52577096  0.45941183     0.12500
C1490       C  0.11671703  0.59440145  0.45583515     0.62000
F1491       F  0.98204338  0.06858826  0.51879554    -0.23100
F1492       F  0.02018120  0.04953658  0.53530942    -0.20500
F1493       F  0.96865861  0.00644569  0.51860081    -0.20100
F1494       F  0.15177959  0.60167596  0.46451040    -0.20200
F1495       F  0.12170163  0.62750432  0.44519047    -0.20500
F1496       F  0.10692188  0.56574447  0.44273168    -0.23200
C1497       C  0.14693516  0.70997207  0.56469892    -0.06000
C1498       C  0.15365267  0.74835476  0.56385861    -0.00100
C1499       C  0.16355584  0.77077231  0.54573219    -0.08700
C1500       C  0.16511977  0.75312958  0.52889148    -0.06100
C1501       C  0.15650698  0.71415748  0.52969135    -0.00100
C1502       C  0.14820030  0.69231464  0.54790315    -0.08600
C1503       C  0.14107593  0.65075866  0.54981975     0.61800
H1504       H  0.13914641  0.69316684  0.57863257     0.12500
H1505       H  0.17162663  0.76921547  0.51477409     0.12500
C1506       C  0.17243673  0.81291494  0.54401137     0.62000
F1507       F  0.14169330  0.63846403  0.56917303    -0.23100
F1508       F  0.17010229  0.64865325  0.53981733    -0.20500
F1509       F  0.10463675  0.62528554  0.54232801    -0.20100
F1510       F  0.19912098  0.83410052  0.55818713    -0.20200
F1511       F  0.13807040  0.81400984  0.54626706    -0.20500
F1512       F  0.18860187  0.83103115  0.52592870    -0.23200
C1513       C  0.09823789  0.98174595  0.48730682    -0.06000
C1514       C  0.09990306  0.96684367  0.46947998    -0.00100
C1515       C  0.06550641  0.94832473  0.45799710    -0.08700
C1516       C  0.03178749  0.94820036  0.46412587    -0.06100
C1517       C  0.02958243  0.96232045  0.48206907    -0.00100
C1518       C  0.06352692  0.97930942  0.49408810    -0.08600
C1519       C  0.06091181  0.48935789  0.51294066     0.61800
H1520       H  0.12464557  0.99607314  0.49600560     0.12500
H1521       H  0.50124181  0.93154232  0.45161110     0.12500
C1522       C  0.06344863  0.92837355  0.43938591     0.62000
F1523       F  0.07283732  0.47072159  0.52688759    -0.23100
F1524       F  0.02568919  0.48467433  0.51915105    -0.20500
F1525       F  0.08855899  0.52883165  0.51184104    -0.20100
F1526       F  0.08106830  0.90569625  0.44218941    -0.20200
F1527       F  0.08207440  0.95619610  0.42420525    -0.20500
F1528       F  0.51751387  0.89809470  0.42992241    -0.23200
C1529       C  0.32569621  0.46936015  0.47142421    -0.06000
C1530       C  0.31338597  0.96335816  0.49109194    -0.00100
C1531       C  0.33182857  0.94964632  0.50511386    -0.08700
C1532       C  0.36455236  0.94763284  0.49925309    -0.06100
C1533       C  0.37776692  0.95483486  0.47986367    -0.00100
C1534       C  0.35751341  0.46433365  0.46638238    -0.08600
C1535       C  0.36905869  0.47070977  0.44494212     0.61800
H1536       H  0.31150900  0.47769199  0.45984956     0.12500
H1537       H  0.38194630  0.94270209  0.51024974     0.12500
C1538       C  0.31856022  0.93756615  0.52635838     0.62000
F1539       F  0.33646526  0.44721855  0.43397117    -0.23100
F1540       F  0.39804290  0.46196492  0.44122389    -0.20500
F1541       F  0.38241611  0.50935650  0.43889537    -0.20100
F1542       F  0.27860776  0.91074829  0.52738088    -0.20200
F1543       F  0.32724411  0.97028858  0.53614279    -0.20500
F1544       F  0.33759520  0.91999860  0.53602762    -0.23200
C1545       C  0.25412413  0.97215100  0.55532630    -0.06000
C1546       C  0.22618700  0.96694333  0.54072019    -0.00100
C1547       C  0.18610909  0.95086701  0.54655680    -0.08700
C1548       C  0.17515893  0.93408983  0.56565258    -0.06100
C1549       C  0.20204705  0.93186959  0.57878959    -0.00100
C1550       C  0.24275624  0.95462223  0.57441617    -0.08600
C1551       C  0.27380632  0.95952961  0.58938168     0.61800
H1552       H  0.28496432  0.98835735  0.55138295     0.12500
H1553       H  0.14437232  0.91902765  0.56995238     0.12500
C1554       C  0.15382271  0.94799508  0.53281468     0.62000
F1555       F  0.31153676  0.98513993  0.58232193    -0.23100
F1556       F  0.27106952  0.92384282  0.59432996    -0.20500
F1557       F  0.26830718  0.97451847  0.60595299    -0.20100
F1558       F  0.14698664  0.92154025  0.51888803    -0.20200
F1559       F  0.16463089  0.98434290  0.52389492    -0.20500
F1560       F  0.11861869  0.93531717  0.54264286    -0.23200
C1561       C  0.42568406  0.71297292  0.38176108    -0.06000
C1562       C  0.42324353  0.68397567  0.37024527    -0.00100
C1563       C  0.43862032  0.66018704  0.37746260    -0.08700
C1564       C  0.44952182  0.66152052  0.39717886    -0.06100
C1565       C  0.44728151  0.68716201  0.40983400    -0.00100
C1566       C  0.43867141  0.71584779  0.40131508    -0.08600
C1567       C  0.44222764  0.74886471  0.41256789     0.61800
H1568       H  0.41419172  0.73130261  0.37586391     0.12500
H1569       H  0.45863576  0.64106945  0.40277990     0.12500
C1570       C  0.44108293  0.63098311  0.36515420     0.62000
F1571       F  0.43747151  0.77589719  0.40072255    -0.23100
F1572       F  0.47942960  0.76816013  0.42058728    -0.20500
F1573       F  0.41362349  0.73403434  0.42702375    -0.20100
F1574       F  0.43910751  0.63924045  0.34534095    -0.20200
F1575       F  0.41055938  0.59378323  0.37028002    -0.20500
F1576       F  0.47653174  0.63200193  0.36845114    -0.23200
C1577       C  0.22406196  0.68997657  0.40875534    -0.06000
C1578       C  0.25332165  0.69857187  0.42279182    -0.00100
C1579       C  0.28310887  0.68926418  0.41985628    -0.08700
C1580       C  0.28389499  0.67347857  0.40219017    -0.06100
C1581       C  0.25621552  0.66736054  0.38740453    -0.00100
C1582       C  0.22517280  0.67503245  0.39087521    -0.08600
C1583       C  0.19369314  0.66855524  0.37582369     0.61800
H1584       H  0.20134903  0.69706009  0.41151784     0.12500
H1585       H  0.30763476  0.66788488  0.39939510     0.12500
C1586       C  0.31567699  0.69855479  0.43455966     0.62000
F1587       F  0.16226814  0.66957162  0.38395384    -0.23100
F1588       F  0.17914109  0.63238987  0.36819570    -0.20500
F1589       F  0.20953868  0.69765001  0.36092908    -0.20100
F1590       F  0.30093774  0.68945402  0.45352029    -0.20200
F1591       F  0.34288258  0.73798329  0.43231231    -0.20500
F1592       F  0.33447912  0.67756319  0.43171176    -0.23200
C1593       C  0.20000960  0.03098871  0.38669155    -0.06000
C1594       C  0.20568650  0.50253875  0.37466119    -0.00100
C1595       C  0.21336453  0.47603797  0.38620145    -0.08700
C1596       C  0.20365548  0.46975256  0.40630860    -0.06100
C1597       C  0.19468218  0.99421072  0.41731129    -0.00100
C1598       C  0.19195655  0.02484685  0.40684138    -0.08600
C1599       C  0.18255382  0.05237005  0.41696712     0.61800
H1600       H  0.19822055  0.05435773  0.37845258     0.12500
H1601       H  0.20892439  0.44941449  0.41539348     0.12500
C1602       C  0.23135690  0.45427889  0.37739995     0.62000
F1603       F  0.18947731  0.08453781  0.40480097    -0.23100
F1604       F  0.20591125  0.06595142  0.43332681    -0.20500
F1605       F  0.14335797  0.03314458  0.42252543    -0.20100
F1606       F  0.27012567  0.48010493  0.37211655    -0.20200
F1607       F  0.21039652  0.43614348  0.36103976    -0.20500
F1608       F  0.23072304  0.42580332  0.39052218    -0.23200
C1609       C  0.26903432  0.81582405  0.12791995    -0.06000
C1610       C  0.25297564  0.79837680  0.14649779    -0.00100
C1611       C  0.26867821  0.77721878  0.15713465    -0.08700
C1612       C  0.29848363  0.77347106  0.14842443    -0.06100
C1613       C  0.31547846  0.79210689  0.13020485    -0.00100
C1614       C  0.30101589  0.81460491  0.11986936    -0.08600
C1615       C  0.31977651  0.83875826  0.10094069     0.61800
H1616       H  0.25598628  0.83058219  0.11958409     0.12500
H1617       H  0.30942564  0.75632024  0.15640926     0.12500
C1618       C  0.25653154  0.75829733  0.17764811     0.62000
F1619       F  0.30360376  0.86174550  0.09492708    -0.23100
F1620       F  0.31420099  0.81449571  0.08607955    -0.20500
F1621       F  0.35965036  0.86351110  0.10369064    -0.20100
F1622       F  0.24059089  0.71830355  0.17711981    -0.20200
F1623       F  0.22965168  0.76544704  0.18615268    -0.20500
F1624       F  0.28940826  0.77255808  0.18944348    -0.23200
C1625       C  0.37316507  0.78994167  0.06404346    -0.06000
C1626       C  0.40397649  0.80129588  0.07770409    -0.00100
C1627       C  0.44342817  0.82558620  0.07085406    -0.08700
C1628       C  0.45012371  0.84141591  0.05146367    -0.06100
C1629       C  0.41900832  0.83357097  0.03878201    -0.00100
C1630       C  0.38011924  0.80597810  0.04461386    -0.08600
C1631       C  0.34625729  0.79538402  0.03054928     0.61800
H1632       H  0.34317747  0.77035198  0.06903231     0.12500
H1633       H  0.47971318  0.86251547  0.04641495     0.12500
C1634       C  0.47841691  0.83537328  0.08376109     0.62000
F1635       F  0.31095494  0.76569203  0.03847235    -0.23100
F1636       F  0.35375812  0.78289467  0.01360176    -0.20500
F1637       F  0.34224189  0.82772028  0.02588997    -0.20100
F1638       F  0.47693152  0.80071536  0.08971275    -0.20200
F1639       F  0.47732695  0.85462779  0.09968648    -0.20500
F1640       F  0.51395963  0.85913359  0.07405462    -0.23200
C1641       C  0.05479635  0.79796724  0.17362377    -0.06000
C1642       C  0.03221702  0.79260964  0.15652631    -0.00100
C1643       C  0.04997718  0.79487569  0.13825303    -0.08700
C1644       C  0.08879464  0.80182178  0.13793171    -0.06100
C1645       C  0.11022786  0.80550827  0.15511435    -0.00100
C1646       C  0.09296572  0.80356479  0.17335703    -0.08600
C1647       C  0.11207776  0.80538711  0.19313377     0.61800
H1648       H  0.04228053  0.79686664  0.18774708     0.12500
H1649       H  0.10237967  0.80268197  0.12420472     0.12500
C1650       C  0.02880029  0.79040777  0.11909992     0.62000
F1651       F  0.11510760  0.83649676  0.20266643    -0.23100
F1652       F  0.14915988  0.81001027  0.19193914    -0.20500
F1653       F  0.08868967  0.77119236  0.20432084    -0.20100
F1654       F  0.02174793  0.82114907  0.11629136    -0.20200
F1655       F  0.99387788  0.75496522  0.11955891    -0.20500
F1656       F  0.05083466  0.79157137  0.10329799    -0.23200
C1657       C  0.41449880  0.71940808  0.23279701    -0.06000
C1658       C  0.39305475  0.73492721  0.24063977    -0.00100
C1659       C  0.38557584  0.76137652  0.22890916    -0.08700
C1660       C  0.40078714  0.77192028  0.20967596    -0.06100
C1661       C  0.42160818  0.75564081  0.20175748    -0.00100
C1662       C  0.42699152  0.72754403  0.21319508    -0.08600
C1663       C  0.44157111  0.70282548  0.20425742     0.61800
H1664       H  0.41805954  0.69768750  0.24165946     0.12500
H1665       H  0.39595036  0.79270096  0.20068991     0.12500
C1666       C  0.36135303  0.77863764  0.23578304     0.62000
F1667       F  0.43364039  0.67022780  0.21633181    -0.23100
F1668       F  0.48179858  0.72451483  0.20113678    -0.20500
F1669       F  0.42277405  0.68966004  0.18666688    -0.20100
F1670       F  0.35102167  0.76950908  0.25538379    -0.20200
F1671       F  0.32728597  0.76485896  0.22488219    -0.20500
F1672       F  0.38280987  0.81895420  0.23298989    -0.23200
C1673       C  0.26758033  0.90147741  0.13509616    -0.06000
C1674       C  0.25860321  0.87538994  0.15172917    -0.00100
C1675       C  0.28515056  0.88727757  0.16774017    -0.08700
C1676       C  0.31840353  0.92481602  0.16665697    -0.06100
C1677       C  0.32410269  0.95235451  0.15135432    -0.00100
C1678       C  0.29907697  0.94042695  0.13491045    -0.08600
C1679       C  0.30404040  0.96909488  0.11787984     0.61800
H1680       H  0.24808954  0.89173785  0.12267500     0.12500
H1681       H  0.33851469  0.93404211  0.17890128     0.12500
C1682       C  0.27924993  0.86356738  0.18694822     0.62000
F1683       F  0.27534579  0.95181132  0.10384696    -0.23100
F1684       F  0.34037393  0.98321898  0.10902032    -0.20500
F1685       F  0.30141450  0.99995574  0.12456341    -0.20100
F1686       F  0.30575291  0.85019412  0.18785379    -0.20200
F1687       F  0.24158676  0.83241595  0.18943736    -0.20500
F1688       F  0.28632997  0.88700767  0.20244726    -0.23200
C1689       C  0.34479848  0.58870356  0.19031549    -0.06000
C1690       C  0.36253483  0.56566939  0.19050389    -0.00100
C1691       C  0.37264136  0.55371793  0.20853050    -0.08700
C1692       C  0.36260005  0.56360390  0.22603221    -0.06100
C1693       C  0.34219215  0.58455450  0.22616271    -0.00100
C1694       C  0.33406476  0.59834925  0.20774242    -0.08600
C1695       C  0.31328885  0.62216660  0.20596667     0.61800
H1696       H  0.33792361  0.59773577  0.17620086     0.12500
H1697       H  0.36971524  0.55372165  0.23982297     0.12500
C1698       C  0.38986344  0.01672386  0.21626272     0.62000
F1699       F  0.30994585  0.63299695  0.18669059    -0.23100
F1700       F  0.33433784  0.65616015  0.21569842    -0.20500
F1701       F  0.27554622  0.60026449  0.21368077    -0.20100
F1702       F  0.42553636  0.03408828  0.20634839    -0.20200
F1703       F  0.36467623  0.98100823  0.20876030    -0.20500
F1704       F  0.39666880  0.01009612  0.23570860    -0.23200
C1705       C  0.06656330  0.69753233  0.11886180    -0.06000
C1706       C  0.03387283  0.67801227  0.13159394    -0.00100
C1707       C  0.03860384  0.68940855  0.15128920    -0.08700
C1708       C  0.07638302  0.71686621  0.15758963    -0.06100
C1709       C  0.10857210  0.73584946  0.14470627    -0.00100
C1710       C  0.10319672  0.72739117  0.12471810    -0.08600
C1711       C  0.13372724  0.74964785  0.10851887     0.61800
H1712       H  0.06357193  0.69057216  0.10376209     0.12500
H1713       H  0.08084752  0.72551822  0.17251881     0.12500
C1714       C  0.50911560  0.66560091  0.16823022     0.62000
F1715       F  0.11771956  0.76365994  0.09417069    -0.23100
F1716       F  0.14319439  0.72436908  0.10031511    -0.20500
F1717       F  0.16805959  0.78127035  0.11456554    -0.20100
F1718       F  0.49893254  0.62664839  0.16986344    -0.20200
F1719       F  0.47628777  0.66891437  0.16380785    -0.20500
F1720       F  0.52231947  0.68058409  0.18637180    -0.23200
C1721       C  0.50015628  0.59050751  0.04945937    -0.06000
C1722       C  0.46587613  0.57695750  0.03837945    -0.00100
C1723       C  0.43218354  0.57553578  0.04613849    -0.08700
C1724       C  0.43351258  0.58672013  0.06536504    -0.06100
C1725       C  0.46718851  0.59819805  0.07697719    -0.00100
C1726       C  0.50135139  0.60030440  0.06887522    -0.08600
C1727       C  0.03264672  0.64747524  0.06811651     0.61800
H1728       H  0.01230929  0.60890750  0.03502620     0.12500
H1729       H  0.40759952  0.58487894  0.07175621     0.12500
C1730       C  0.37582764  0.01582916  0.04932509     0.62000
F1731       F  0.05983226  0.65765831  0.05316160    -0.23100
F1732       F  0.04554263  0.63400437  0.08416169    -0.20500
F1733       F  0.55956230  0.65009853  0.08272442    -0.20100
F1734       F  0.36532849  0.98336477  0.06198461    -0.20200
F1735       F  0.37189651  0.00460444  0.03031418    -0.20500
F1736       F  0.34987128  0.02921634  0.05197271    -0.23200
C1737       C  0.18581158  0.71099019  0.13934164    -0.06000
C1738       C  0.17449454  0.72483416  0.15498527    -0.00100
C1739       C  0.15566588  0.69868608  0.17157174    -0.08700
C1740       C  0.14828243  0.66024297  0.17157631    -0.06100
C1741       C  0.16086742  0.64647610  0.15648038    -0.00100
C1742       C  0.18030422  0.67261313  0.13995894    -0.08600
C1743       C  0.19625762  0.66089984  0.12331845     0.61800
H1744       H  0.19949240  0.73079391  0.12664715     0.12500
H1745       H  0.13310382  0.64087348  0.18418820     0.12500
C1746       C  0.14404378  0.70920523  0.19033015     0.62000
F1747       F  0.21697668  0.69176710  0.10970138    -0.23100
F1748       F  0.16548096  0.63108282  0.11374448    -0.20500
F1749       F  0.22166226  0.64856269  0.13062916    -0.20100
F1750       F  0.10378861  0.68627884  0.19321458    -0.20200
F1751       F  0.15424607  0.74787580  0.19042013    -0.20500
F1752       F  0.16256909  0.70153641  0.20603854    -0.23200
C1753       C  0.13899489  0.55423303  0.23800125    -0.06000
C1754       C  0.16367094  0.53895466  0.24301472    -0.00100
C1755       C  0.17025248  0.51749133  0.22937313    -0.08700
C1756       C  0.15851085  0.51861798  0.20990389    -0.06100
C1757       C  0.13952833  0.53966854  0.20416491    -0.00100
C1758       C  0.12492264  0.55300401  0.21882068    -0.08600
C1759       C  0.09507092  0.56632438  0.21493300     0.61800
H1760       H  0.13244619  0.56909085  0.24880093     0.12500
H1761       H  0.16769312  0.50645520  0.19881191     0.12500
C1762       C  0.19190584  0.49575622  0.23518389     0.62000
F1763       F  0.06368246  0.54581602  0.22783475    -0.23100
F1764       F  0.07996425  0.55961680  0.19619734    -0.20500
F1765       F  0.11231138  0.60574948  0.21788211    -0.20100
F1766       F  0.17423829  0.47152548  0.25172710    -0.20200
F1767       F  0.23082343  0.52199349  0.23913606    -0.20500
F1768       F  0.19093901  0.47284161  0.22050084    -0.23200
C1769       C  0.17127750  0.87942603  0.12753098    -0.06000
C1770       C  0.18358113  0.87702969  0.14672649    -0.00100
C1771       C  0.19011712  0.90688493  0.15924647    -0.08700
C1772       C  0.18101582  0.93595901  0.15243426    -0.06100
C1773       C  0.16490210  0.93625108  0.13371884    -0.00100
C1774       C  0.16114149  0.90762236  0.12078588    -0.08600
C1775       C  0.14653907  0.90582769  0.09988882     0.61800
H1776       H  0.16798322  0.85725320  0.11796820     0.12500
H1777       H  0.18574447  0.95824355  0.16227950     0.12500
C1778       C  0.20700597  0.91029052  0.17964570     0.62000
F1779       F  0.14859046  0.87766256  0.08982255    -0.23100
F1780       F  0.16969858  0.94139540  0.08976699    -0.20500
F1781       F  0.10751586  0.89654419  0.09993751    -0.20100
F1782       F  0.21079456  0.87867442  0.18592859    -0.20200
F1783       F  0.18282829  0.91355793  0.19284021    -0.20500
F1784       F  0.24386932  0.94348595  0.17979630    -0.23200
C1785       C  0.04830281  0.99645237  0.07006991    -0.06000
C1786       C  0.05673715  0.98230926  0.05363734    -0.00100
C1787       C  0.08466108  0.96951659  0.05543468    -0.08700
C1788       C  0.10560718  0.97466121  0.07301351    -0.06100
C1789       C  0.09838702  0.99010347  0.08929007    -0.00100
C1790       C  0.06816249  0.00011245  0.08800443    -0.08600
C1791       C  0.05330376  0.50496708  0.10294305     0.61800
H1792       H  0.02618187  0.00515976  0.06865872     0.12500
H1793       H  0.12820775  0.96668625  0.07405985     0.12500
C1794       C  0.09138012  0.94889028  0.03927009     0.62000
F1795       F  0.01657669  0.50089670  0.09932348    -0.23100
F1796       F  0.07691755  0.54130287  0.11022504    -0.20500
F1797       F  0.04845621  0.98766165  0.12152949    -0.20100
F1798       F  0.11288355  0.97570019  0.02417197    -0.20200
F1799       F  0.05559282  0.92053481  0.03228497    -0.20500
F1800       F  0.11195553  0.93049296  0.04592350    -0.23200
C1801       C  0.62673867  0.50164959  0.10346892     0.80000
N1802       N  0.63744666  0.47406356  0.10731800    -0.78300
C1803       C  0.65415911  0.47184026  0.12463263     0.82400
N1804       N  0.65961361  0.49792708  0.13819618    -0.78300
C1805       C  0.65624187  0.02942154  0.13275542     0.82500
N1806       N  0.63742518  0.02911254  0.11580620    -0.80000
C1807       C  0.66162827  0.06493311  0.18172898     0.80000
N1808       N  0.66755546  0.10142837  0.17742665    -0.78300
C1809       C  0.66961415  0.11571663  0.15856346     0.82400
N1810       N  0.66572371  0.09245771  0.14373904    -0.78300
C1811       C  0.66132181  0.05620458  0.14799635     0.82500
N1812       N  0.65947149  0.04293500  0.16694272    -0.80000
C1813       C  0.96424911  0.09650719  0.10136652     0.80000
N1814       N  0.99720030  0.12782371  0.10798914    -0.78300
C1815       C  0.00172138  0.13562749  0.12732756     0.82400
N1816       N  0.97250802  0.11144928  0.13999899    -0.78300
C1817       C  0.93957799  0.08012040  0.13376808     0.82500
N1818       N  0.93563514  0.07261588  0.11458622    -0.80000
C1819       C  0.87938465  0.04367937  0.17878417     0.80000
N1820       N  0.90731366  0.06762913  0.16542305    -0.78300
C1821       C  0.90889248  0.05436456  0.14785818     0.82400
N1822       N  0.87613230  0.52735575  0.13787258    -0.78300
C1823       C  0.84729722  0.50310920  0.15087588     0.82500
N1824       N  0.84367524  0.51711234  0.16785711    -0.80000
C1825       C  0.94401398  0.26997589  0.18282469     0.80000
N1826       N  0.97958220  0.27534964  0.17796160    -0.78300
C1827       C  0.99380179  0.28544398  0.15940427     0.82400
N1828       N  0.97188421  0.29105059  0.14539817    -0.78300
C1829       C  0.93616763  0.28637806  0.14993020     0.82500
N1830       N  0.92227703  0.27602343  0.16870238    -0.80000
C1831       C  0.90765251  0.31097447  0.10171519     0.80000
N1832       N  0.92691961  0.30177471  0.11582433    -0.78300
C1833       C  0.91399136  0.29450971  0.13465045     0.82400
N1834       N  0.88186270  0.29688171  0.13930483    -0.78300
C1835       C  0.86217647  0.30618044  0.12528447     0.82500
N1836       N  0.87524103  0.31277693  0.10648853    -0.80000
C1837       C  0.68499790  0.34455197  0.14896057     0.02000
C1838       C  0.64931211  0.30857895  0.15053533     0.02000
C1839       C  0.64868182  0.27276841  0.14958130     0.02000
C1840       C  0.68410957  0.27145962  0.15077769     0.02000
C1841       C  0.72085931  0.30767397  0.14923719     0.02000
C1842       C  0.72103505  0.34418908  0.14868584     0.02000
Zr1843     Zr  0.80212017  0.10635588  0.34603537     2.17500
O1844       O  0.80510447  0.07996560  0.37890797    -0.51600
O1845       O  0.77585026  0.13207918  0.36865154    -0.74800
O1846       O  0.86659327  0.14166733  0.36001315    -0.81600
O1847       O  0.70319190  0.02246474  0.34129137    -0.83300
O1848       O  0.90392118  0.19776082  0.34132702    -0.78900
O1849       O  0.76243250  0.03667974  0.35276729    -0.90600
O1850       O  0.75316823  0.16873331  0.35274078    -0.76500
O1851       O  0.82027898  0.17025632  0.33271171    -0.86000
O1852       O  0.74354808  0.10137602  0.33224587    -0.85700
O1853       O  0.85490126  0.12310175  0.32342042    -0.72500
O1854       O  0.78235866  0.05785443  0.32250259    -0.84600
Zr1855     Zr  0.79349197  0.13380474  0.27146531     2.26400
Zr1856     Zr  0.87156318  0.18671089  0.30928116     2.06300
Zr1857     Zr  0.72387968  0.05366358  0.30814610     2.10000
Zr1858     Zr  0.76194822  0.16479976  0.31831707     1.78800
O1859       O  0.69730591  0.98365853  0.30647953    -0.93400
O1860       O  0.79306240  0.23356739  0.32541538    -0.41200
O1861       O  0.74091291  0.11736665  0.29400955    -0.77900
O1862       O  0.81339618  0.18272318  0.29488041    -0.96500
O1863       O  0.85221443  0.13949363  0.28516658    -0.89800
O1864       O  0.77557202  0.07007093  0.28491750    -0.92700
C1865       C  0.76100178  0.15443161  0.36833471     1.01100
C1866       C  0.72522897  0.02007397  0.35487153     1.14000
C1867       C  0.89752976  0.17503957  0.35681418     1.04800
O1868       O  0.89285416  0.25545966  0.31222439    -0.94800
O1869       O  0.89451097  0.21768543  0.27624004    -0.90600
O1870       O  0.84169975  0.19447500  0.25597075    -0.83700
C1871       C  0.87796042  0.21721837  0.25966773     1.11400
O1872       O  0.85975831  0.04189265  0.31991600    -0.96800
Zr1873     Zr  0.83414869  0.07631972  0.29914096     1.88900
O1874       O  0.82273903  0.11228691  0.24777798    -0.73500
O1875       O  0.93930358  0.20056316  0.30673200    -0.52700
O1876       O  0.90513526  0.10341409  0.29626236    -0.97400
O1877       O  0.80449652  0.00653965  0.29487997    -0.54600
O1878       O  0.84379971  0.07538400  0.26453476    -0.74000
C1879       C  0.83879673  0.09093811  0.24852115     0.98400
O1880       O  0.77216489  0.16704431  0.24710790    -0.62800
O1881       O  0.65836963  0.04584792  0.31022960    -0.57600
O1882       O  0.73537782  0.08918711  0.25474964    -0.94300
O1883       O  0.69341357  0.03897472  0.27570129    -0.92700
O1884       O  0.69208302  0.14274152  0.32182831    -0.93100
O1885       O  0.74245526  0.20078377  0.29483401    -0.91900
C1886       C  0.70355661  0.05706843  0.25867751     1.17200
H1887       H  0.72313725  0.09320759  0.34206032     0.33100
H1888       H  0.81970053  0.20760452  0.28839600     0.44000
H1889       H  0.76665297  0.05142380  0.27490464     0.37500
H1890       H  0.87773963  0.12362684  0.32949670     0.34000
H1891       H  0.81046172  0.23648612  0.33668644     0.25800
H1892       H  0.94285833  0.19698683  0.29289306     0.31700
H1893       H  0.91166472  0.11230504  0.28230658     0.37600
H1894       H  0.68089740  0.11775455  0.32985996     0.32100
H1895       H  0.65781367  0.06390028  0.29967203     0.31000
H1896       H  0.71825740  0.97899479  0.31200318     0.32700
H1897       H  0.82277201  0.00442567  0.28597944     0.31600
H1898       H  0.73356284  0.18481238  0.28325244     0.35600
H1899       H  0.76975608  0.15461350  0.23465460     0.28400
H1900       H  0.81562638  0.10216157  0.38751145     0.32600
H1901       H  0.87338473  0.05917456  0.33072211     0.35400
H1902       H  0.64034220  0.01938177  0.30574227     0.28000
H1903       H  0.74483465  0.15917691  0.25084391     0.40900
H1904       H  0.91935005  0.26986227  0.30604220     0.31000
H1905       H  0.81145034  0.24792535  0.31432180     0.38600
H1906       H  0.78071672  0.99961588  0.28692866     0.30400
H1907       H  0.95572197  0.22908031  0.30811050     0.30500
H1908       H  0.82604401  0.07304608  0.37834843     0.30800
C1909       C  0.73607197  0.47191500  0.51733664     0.80000
N1910       N  0.71306113  0.47318650  0.50261432    -0.78300
C1911       C  0.72157339  0.47185848  0.48365724     0.82400
N1912       N  0.75079810  0.95788594  0.47834689    -0.78300
C1913       C  0.77669643  0.46659916  0.49402757     0.82500
N1914       N  0.76787575  0.46903817  0.51272981    -0.80000
C1915       C  0.67876148  0.48059812  0.43579198     0.80000
N1916       N  0.64311854  0.47374588  0.44184147    -0.78300
C1917       C  0.63256614  0.46562360  0.46096178     0.82400
N1918       N  0.65855851  0.46517943  0.47421240    -0.78300
C1919       C  0.69430951  0.47161192  0.46846857     0.82500
N1920       N  0.70445718  0.47910234  0.44912063    -0.80000
C1921       C  0.65622494  0.19647471  0.51079808     0.80000
N1922       N  0.68797646  0.21438013  0.49867719    -0.78300
C1923       C  0.68835813  0.19732147  0.48217027     0.82400
N1924       N  0.65694341  0.16254397  0.47777464    -0.78300
C1925       C  0.62493861  0.14445758  0.48971180     0.82500
N1926       N  0.62499849  0.16196413  0.50615479    -0.80000
C1927       C  0.75595627  0.21614616  0.44122155     0.80000
N1928       N  0.72391191  0.19848743  0.45319087    -0.78300
C1929       C  0.72266988  0.21613850  0.46925429     0.82400
N1930       N  0.75320715  0.25167063  0.47317879    -0.78300
C1931       C  0.78507140  0.26996296  0.46111137     0.82500
N1932       N  0.78637700  0.25190582  0.44520114    -0.80000
C1933       C  0.95768542  0.22744978  0.51671550     0.80000
N1934       N  0.95420912  0.20486790  0.50189732    -0.78300
C1935       C  0.95036487  0.21570050  0.48305493     0.82400
N1936       N  0.94990123  0.24973221  0.47909750    -0.78300
C1937       C  0.95271746  0.27255363  0.49391524     0.82500
N1938       N  0.95663461  0.26080103  0.51253181    -0.80000
C1939       C  0.94883986  0.17806060  0.43400615     0.80000
N1940       N  0.94898980  0.20139232  0.44794710    -0.78300
C1941       C  0.94801551  0.19046220  0.46739986     0.82400
N1942       N  0.46049311  0.16390591  0.47023200    -0.78300
C1943       C  0.45673848  0.13915401  0.45645994     0.82500
N1944       N  0.94663549  0.14365723  0.43996759    -0.80000
C1945       C  0.94999897  0.49046402  0.47725346     0.02000
C1946       C  0.91446280  0.45428815  0.47795689     0.02000
C1947       C  0.91502028  0.41909019  0.48185283     0.02000
C1948       C  0.95107616  0.41996788  0.48566342     0.02000
C1949       C  0.98691442  0.45636011  0.48502255     0.02000
C1950       C  0.98568458  0.49161653  0.48240205     0.02000
C1951       C  0.76200154  0.35580421  0.76626017     0.80000
N1952       N  0.76508743  0.37884041  0.78078089    -0.78300
C1953       C  0.76585602  0.36747284  0.79982378     0.82400
N1954       N  0.76298165  0.33218719  0.80451739    -0.78300
C1955       C  0.75852916  0.30796771  0.79020147     0.82500
N1956       N  0.75816101  0.32019976  0.77112074    -0.80000
C1957       C  0.78520970  0.41572221  0.84671849     0.80000
N1958       N  0.78160887  0.39050570  0.83315339    -0.78300
C1959       C  0.76805436  0.39304613  0.81500772     0.82400
N1960       N  0.75779758  0.42067704  0.81051116    -0.78300
C1961       C  0.76085087  0.44597899  0.82379510     0.82500
N1962       N  0.77542731  0.44361023  0.84178482    -0.80000
C1963       C  0.55094984  0.36995761  0.77922631     0.80000
N1964       N  0.52098476  0.34591368  0.79173614    -0.78300
C1965       C  0.51713989  0.35872933  0.80907074     0.82400
N1966       N  0.54309022  0.39625216  0.81367960    -0.78300
C1967       C  0.57274914  0.42070085  0.80100793     0.82500
N1968       N  0.57615032  0.40712665  0.78389483    -0.80000
C1969       C  0.95549505  0.31935768  0.85376609     0.80000
N1970       N  0.48556003  0.34154182  0.84130668    -0.78300
C1971       C  0.48405744  0.33272834  0.82241946     0.82400
N1972       N  0.95161751  0.29943576  0.81611110    -0.78300
C1973       C  0.92182476  0.27585254  0.82870286     0.82500
N1974       N  0.92437352  0.28606647  0.84757461    -0.80000
C1975       C  0.52340095  0.13080748  0.84885152     0.80000
N1976       N  0.55333140  0.12517712  0.84375508    -0.78300
C1977       C  0.55977869  0.12187201  0.82478546     0.82400
N1978       N  0.53607939  0.12449198  0.81071875    -0.78300
C1979       C  0.50563707  0.12934818  0.81561291     0.82500
N1980       N  0.49906588  0.13207781  0.83471116    -0.80000
C1981       C  0.97137204  0.14832513  0.76908455     0.80000
N1982       N  0.93471240  0.13957509  0.77440210    -0.78300
C1983       C  0.92236973  0.13026903  0.79337957     0.82400
N1984       N  0.94731796  0.12959985  0.80718610    -0.78300
C1985       C  0.98409096  0.13811043  0.80217748     0.82500
N1986       N  0.99600230  0.14706605  0.78308821    -0.80000
C1987       C  0.73558602  0.15032253  0.80259484     0.02000
C1988       C  0.69823175  0.11477254  0.80372188     0.02000
C1989       C  0.69729062  0.07807222  0.80538747     0.02000
C1990       C  0.73279445  0.07721526  0.80689599     0.02000
C1991       C  0.76904488  0.11212490  0.80518986     0.02000
C1992       C  0.77042633  0.14830192  0.80538663     0.02000
Zr1993     Zr  0.97056457  0.47767302  0.93628050     2.17500
O1994       O  0.52143436  0.49546679  0.90947671    -0.51600
O1995       O  0.91490111  0.45335048  0.91441522    -0.74800
O1996       O  0.97248595  0.42629709  0.92025009    -0.81600
O1997       O  0.98268813  0.07566270  0.94378492    -0.83300
O1998       O  0.95757816  0.37586855  0.94287684    -0.78900
O1999       O  0.98638360  0.03731084  0.92142521    -0.90600
O2000       O  0.86012126  0.42995936  0.93335480    -0.76500
O2001       O  0.92172051  0.41839110  0.95229950    -0.86000
O2002       O  0.92732810  0.49378337  0.95161599    -0.85700
O2003       O  0.00592702  0.45716084  0.95840388    -0.72500
O2004       O  0.50940869  0.02366537  0.95809044    -0.84600
Zr2005     Zr  0.95235537  0.46326587  0.01189062     2.26400
Zr2006     Zr  0.95625096  0.39825995  0.97504925     2.06300
Zr2007     Zr  0.96849591  0.03867847  0.97571781     2.10000
Zr2008     Zr  0.87868398  0.43461772  0.96759090     1.78800
O2009       O  0.51912504  0.10612406  0.97844680    -0.93400
O2010       O  0.83106659  0.36617001  0.96305782    -0.41200
O2011       O  0.91720284  0.48395085  0.98988342    -0.77900
O2012       O  0.91126805  0.41255808  0.99076514    -0.96500
O2013       O  0.99599258  0.44776695  0.99668676    -0.89800
O2014       O  0.00185956  0.52285207  0.99628056    -0.92700
C2015       C  0.87758192  0.43763292  0.91669478     1.01100
C2016       C  0.48625369  0.06882461  0.92488970     1.14000
C2017       C  0.96563686  0.39172465  0.92536641     1.04800
O2018       O  0.90325826  0.33052088  0.97553243    -0.94800
O2019       O  0.94954205  0.36578601  0.00754854    -0.90600
O2020       O  0.94191069  0.40375273  0.02855167    -0.83700
C2021       C  0.94390913  0.37368121  0.02468724     1.11400
O2022       O  0.59948827  0.52951827  0.95674949    -0.96800
Zr2023     Zr  0.54581403  0.50435158  0.98050365     1.88900
O2024       O  0.00800545  0.47930539  0.03304847    -0.73500
O2025       O  0.00806337  0.38131512  0.97653443    -0.52700
O2026       O  0.58412739  0.47133649  0.98327130    -0.97400
O2027       O  0.58533684  0.06708555  0.98689324    -0.54600
O2028       O  0.56257132  0.50451087  0.01469840    -0.74000
C2029       C  0.54451548  0.49442734  0.03119257     0.98400
O2030       O  0.90361394  0.44054737  0.03824502    -0.62800
O2031       O  0.92029360  0.06028693  0.97290545    -0.57600
O2032       O  0.94014742  0.00215812  0.02944526    -0.94300
O2033       O  0.95784928  0.05517144  0.00826369    -0.92700
O2034       O  0.83936664  0.46659905  0.96482820    -0.93100
O2035       O  0.82577563  0.40873885  0.99183279    -0.91900
C2036       C  0.94703655  0.03699513  0.02529954     1.17200
H2037       H  0.92065687  0.00377280  0.94223736     0.33100
H2038       H  0.89186070  0.38972724  0.99832575     0.44000
H2039       H  0.51277000  0.03479985  0.00618946     0.37500
H2040       H  0.02306156  0.45181291  0.95107631     0.34000
H2041       H  0.84140947  0.35929690  0.95184713     0.25800
H2042       H  0.99387191  0.35245636  0.97628453     0.31700
H2043       H  0.57014497  0.44844909  0.97520258     0.37600
H2044       H  0.81861019  0.45174410  0.95526749     0.32100
H2045       H  0.93625061  0.08916029  0.97132022     0.31000
H2046       H  0.50665402  0.12245462  0.97628092     0.32700
H2047       H  0.58095709  0.08209255  0.97596376     0.31600
H2048       H  0.83941447  0.41647196  0.00451072     0.35600
H2049       H  0.88316917  0.41365940  0.03530386     0.28400
H2050       H  0.51165320  0.50457332  0.89800568     0.32600
H2051       H  0.58661085  0.51783794  0.94439153     0.35400
H2052       H  0.90798758  0.05216129  0.95997214     0.28000
H2053       H  0.91680343  0.43737661  0.05017890     0.40900
H2054       H  0.88311569  0.33092753  0.96669232     0.31000
H2055       H  0.83446640  0.35160524  0.97452793     0.38600
H2056       H  0.61202858  0.07133858  0.98449185     0.30400
H2057       H  0.02180852  0.39071678  0.96370601     0.30500
H2058       H  0.54556158  0.51905386  0.91353803     0.30800
Zr2059     Zr  0.61976365  0.28884009  0.67892307     2.17500
O2060       O  0.64469434  0.25715858  0.70218108    -0.51600
O2061       O  0.59364291  0.31408620  0.70218095    -0.74800
O2062       O  0.67644295  0.33579996  0.69558177    -0.81600
O2063       O  0.51993851  0.19856413  0.67426198    -0.83300
O2064       O  0.71957330  0.38258396  0.67355000    -0.78900
O2065       O  0.57053680  0.22936674  0.69548657    -0.90600
O2066       O  0.56875161  0.34828346  0.68586365    -0.76500
O2067       O  0.63534960  0.35164773  0.66525951    -0.86000
O2068       O  0.56009632  0.28010855  0.66506632    -0.85700
O2069       O  0.67259518  0.30714650  0.65620581    -0.72500
O2070       O  0.60195144  0.23987026  0.65586702    -0.84600
Zr2071     Zr  0.60838944  0.31192182  0.60451650     2.26400
Zr2072     Zr  0.68656043  0.36963102  0.64159979     2.06300
Zr2073     Zr  0.54194748  0.23184532  0.64158515     2.10000
Zr2074     Zr  0.57570005  0.34270526  0.65116841     1.78800
O2075       O  0.52131562  0.16332418  0.63838798    -0.93400
O2076       O  0.60964436  0.41311534  0.65459162    -0.41200
O2077       O  0.55595235  0.29444767  0.62725291    -0.77900
O2078       O  0.62645276  0.36133890  0.62732630    -0.96500
O2079       O  0.66900618  0.32189262  0.61784230    -0.89800
O2080       O  0.59360704  0.24959476  0.61837993    -0.92700
C2081       C  0.57712429  0.33511198  0.70175619     1.01100
C2082       C  0.53572637  0.20267810  0.69133347     1.14000
C2083       C  0.70924778  0.36633038  0.69095837     1.04800
O2084       O  0.71321761  0.43819961  0.64783984    -0.94800
O2085       O  0.70202913  0.40931296  0.61037760    -0.90600
O2086       O  0.65839369  0.37016047  0.58812522    -0.83700
C2087       C  0.68770876  0.40247537  0.59297560     1.11400
O2088       O  0.68693371  0.23502714  0.65438088    -0.96800
Zr2089     Zr  0.65380100  0.25967633  0.63219404     1.88900
O2090       O  0.63068316  0.28486454  0.58053123    -0.73500
O2091       O  0.75205206  0.38112983  0.63415750    -0.52700
O2092       O  0.72307713  0.28798691  0.62346414    -0.97400
O2093       O  0.62614589  0.18926757  0.63148384    -0.54600
O2094       O  0.65610946  0.25158861  0.59744585    -0.74000
C2095       C  0.64640336  0.26325413  0.58142752     0.98400
O2096       O  0.58617835  0.34563796  0.58096621    -0.62800
O2097       O  0.47507067  0.22007137  0.64450381    -0.57600
O2098       O  0.54998977  0.26684905  0.58825027    -0.94300
O2099       O  0.51039894  0.21553873  0.60927442    -0.92700
O2100       O  0.50660823  0.32041656  0.65763359    -0.93100
O2101       O  0.54825212  0.37177281  0.62796256    -0.91900
C2102       C  0.51931520  0.23375169  0.59222850     1.17200
H2103       H  0.53975919  0.27153566  0.67494147     0.33100
H2104       H  0.63073144  0.38520564  0.62037946     0.44000
H2105       H  0.58469095  0.23030111  0.60868467     0.37500
H2106       H  0.69539229  0.30940820  0.66307501     0.34000
H2107       H  0.62789578  0.41745906  0.66562239     0.25800
H2108       H  0.77024109  0.40525556  0.64073231     0.31700
H2109       H  0.72432817  0.26777339  0.61622622     0.37600
H2110       H  0.49434189  0.29197811  0.66093469     0.32100
H2111       H  0.97219676  0.22196153  0.66037785     0.31000
H2112       H  0.49512090  0.14857298  0.64486048     0.32700
H2113       H  0.60768619  0.18151307  0.62034418     0.31600
H2114       H  0.54294017  0.35691524  0.61609248     0.35600
H2115       H  0.58695255  0.33599299  0.56807898     0.28400
H2116       H  0.64407135  0.26683956  0.71507967     0.32600
H2117       H  0.67086511  0.22635164  0.66654862     0.35400
H2118       H  0.45801266  0.19321462  0.64025213     0.28000
H2119       H  0.55784048  0.33489019  0.58379972     0.40900
H2120       H  0.69902491  0.43781820  0.65968447     0.31000
H2121       H  0.62720633  0.42506245  0.64300113     0.38600
H2122       H  0.60887043  0.17814069  0.64322720     0.30400
H2123       H  0.75400545  0.36010850  0.64183358     0.30500
H2124       H  0.67304107  0.26888442  0.69899373     0.30800
C2125       C  0.83166294  0.12041269  0.81864547    -0.06000
C2126       C  0.80599149  0.11098153  0.80273349    -0.00100
C2127       C  0.81742686  0.10398936  0.78459352    -0.08700
C2128       C  0.85430417  0.10717584  0.78315930    -0.06100
C2129       C  0.88169761  0.12048531  0.79837022    -0.00100
C2130       C  0.87000144  0.12660195  0.81673179    -0.08600
C2131       C  0.89757236  0.14098511  0.83405717     0.61800
H2132       H  0.82205587  0.12529896  0.83231991     0.12500
H2133       H  0.86256590  0.10119612  0.76934113     0.12500
C2134       C  0.79374023  0.09497037  0.76584850     0.62000
F2135       F  0.93145733  0.17557171  0.82863531    -0.23100
F2136       F  0.90702783  0.11295648  0.84061551    -0.20500
F2137       F  0.88059048  0.14817602  0.84958327    -0.20100
F2138       F  0.78422018  0.05814116  0.76057495    -0.20200
F2139       F  0.81624544  0.12198276  0.75096956    -0.20500
F2140       F  0.75958521  0.09614611  0.76739827    -0.23200
C2141       C  0.48977540  0.19422007  0.71676167    -0.06000
C2142       C  0.51124276  0.17934412  0.70837565    -0.00100
C2143       C  0.51633448  0.15029132  0.71889344    -0.08700
C2144       C  0.49990588  0.13736783  0.73790181    -0.06100
C2145       C  0.98412125  0.15838444  0.74817376    -0.00100
C2146       C  0.97501624  0.18283366  0.73559507    -0.08600
C2147       C  0.95248967  0.20177984  0.74264549     0.61800
H2148       H  0.98462395  0.21197328  0.70677476     0.12500
H2149       H  0.50356069  0.11521008  0.74623818     0.12500
C2150       C  0.53930816  0.13354451  0.71002679     0.62000
F2151       F  0.95277110  0.22917495  0.72888607    -0.23100
F2152       F  0.96960976  0.22080696  0.75944822    -0.20500
F2153       F  0.91363079  0.17371450  0.74639293    -0.20100
F2154       F  0.57791674  0.16271549  0.70657791    -0.20200
F2155       F  0.52236116  0.11775561  0.69249618    -0.20500
F2156       F  0.53954354  0.10440075  0.72225628    -0.23200
C2157       C  0.64127143  0.09654001  0.82531535    -0.06000
C2158       C  0.66094179  0.11510342  0.80748304    -0.00100
C2159       C  0.64492077  0.13342764  0.79482287    -0.08700
C2160       C  0.61282397  0.13598997  0.80146782    -0.06100
C2161       C  0.59340437  0.11738135  0.81921647    -0.00100
C2162       C  0.60608440  0.09473260  0.83069310    -0.08600
C2163       C  0.58158134  0.06655406  0.84759436     0.61800
H2164       H  0.65359641  0.08299321  0.83512909     0.12500
H2165       H  0.60218640  0.15211932  0.79231790     0.12500
C2166       C  0.65886336  0.14985611  0.77413499     0.62000
F2167       F  0.59474915  0.04084622  0.85326082    -0.23100
F2168       F  0.54273023  0.04446753  0.84192396    -0.20500
F2169       F  0.58346147  0.08676209  0.86365475    -0.20100
F2170       F  0.68720527  0.14245469  0.76771057    -0.20200
F2171       F  0.67374311  0.18982538  0.77310174    -0.20500
F2172       F  0.62725825  0.13312872  0.76155721    -0.23200
C2173       C  0.53323421  0.12472615  0.90352870    -0.06000
C2174       C  0.49400277  0.09757966  0.90850309    -0.00100
C2175       C  0.46383487  0.09098785  0.89495213    -0.08700
C2176       C  0.47441184  0.10695943  0.87566560    -0.06100
C2177       C  0.51414143  0.12940257  0.86986106    -0.00100
C2178       C  0.54372544  0.14207992  0.88443632    -0.08600
C2179       C  0.58647712  0.17292921  0.88051343     0.61800
H2180       H  0.55610367  0.13051658  0.91422263     0.12500
H2181       H  0.45173841  0.09809632  0.86464076     0.12500
C2182       C  0.92152912  0.06194332  0.90043313     0.62000
F2183       F  0.59852909  0.20079002  0.89425223    -0.23100
F2184       F  0.59226604  0.19208349  0.86221557    -0.20500
F2185       F  0.60975453  0.15582278  0.88212841    -0.20100
F2186       F  0.91105400  0.07482691  0.91629604    -0.20200
F2187       F  0.91469980  0.02463100  0.90496589    -0.20500
F2188       F  0.89757785  0.06040476  0.88489648    -0.23200
C2189       C  0.85292819  0.22425880  0.83512607    -0.06000
C2190       C  0.88440797  0.24221365  0.82170786    -0.00100
C2191       C  0.87797058  0.22849700  0.80242822    -0.08700
C2192       C  0.83970680  0.19935574  0.79742970    -0.06100
C2193       C  0.80808631  0.18317530  0.81082527    -0.00100
C2194       C  0.81509517  0.19560195  0.83019719    -0.08600
C2195       C  0.78520598  0.17953635  0.84690656     0.61800
H2196       H  0.85744817  0.23253725  0.85003763     0.12500
H2197       H  0.83435980  0.18745755  0.78317096     0.12500
C2198       C  0.91087537  0.24230561  0.78737251     0.62000
F2199       F  0.79778739  0.16272504  0.86159243    -0.23100
F2200       F  0.74782255  0.15190791  0.84172962    -0.20500
F2201       F  0.78304268  0.21010819  0.85433752    -0.20100
F2202       F  0.89835165  0.22079082  0.77090411    -0.20200
F2203       F  0.94123776  0.23803055  0.79546640    -0.20500
F2204       F  0.92452601  0.28096999  0.78124789    -0.23200
C2205       C  0.99392599  0.36462941  0.87929612    -0.06000
C2206       C  0.95775234  0.33243939  0.87407049    -0.00100
C2207       C  0.92580325  0.31634731  0.88786414    -0.08700
C2208       C  0.93110742  0.33483395  0.90550070    -0.06100
C2209       C  0.96629101  0.36866424  0.90960171    -0.00100
C2210       C  0.99884685  0.38289236  0.89676801    -0.08600
C2211       C  0.54008007  0.41411419  0.90202682     0.61800
H2212       H  0.52002049  0.37230736  0.87087154     0.12500
H2213       H  0.90684413  0.32451368  0.91577796     0.12500
C2214       C  0.88587170  0.28096711  0.88422107     0.62000
F2215       F  0.54558108  0.42112824  0.92170956    -0.23100
F2216       F  0.54426528  0.44704565  0.89155442    -0.20500
F2217       F  0.56933849  0.40710644  0.89610044    -0.20100
F2218       F  0.89033598  0.24893703  0.88196673    -0.20200
F2219       F  0.86917507  0.28864347  0.86774257    -0.20500
F2220       F  0.85976328  0.27139244  0.89963999    -0.23200
C2221       C  0.64693456  0.01504878  0.82186823    -0.06000
C2222       C  0.65970115  0.03979851  0.80466778    -0.00100
C2223       C  0.64026915  0.02508409  0.78683007    -0.08700
C2224       C  0.60861658  0.98668532  0.78701574    -0.06100
C2225       C  0.59971727  0.46300572  0.80413562    -0.00100
C2226       C  0.61995606  0.47780377  0.82179212    -0.08600
C2227       C  0.61112160  0.45182317  0.84042834     0.61800
H2228       H  0.66232479  0.02650652  0.83530128     0.12500
H2229       H  0.59348067  0.97572245  0.77338812     0.12500
C2230       C  0.65265578  0.04692077  0.76690375     0.62000
F2231       F  0.63565230  0.47175179  0.85557043    -0.23100
F2232       F  0.61636689  0.42062668  0.83712148    -0.20500
F2233       F  0.57271159  0.43802309  0.84636201    -0.20100
F2234       F  0.68891523  0.08024353  0.76692098    -0.20200
F2235       F  0.62495375  0.05687595  0.76056253    -0.20500
F2236       F  0.65478838  0.02313142  0.75360237    -0.23200
C2237       C  0.55731176  0.38355485  0.74355529    -0.06000
C2238       C  0.55417606  0.35820885  0.75956835    -0.00100
C2239       C  0.55672374  0.32461136  0.75647184    -0.08700
C2240       C  0.56288275  0.31790798  0.73728323    -0.06100
C2241       C  0.56706409  0.34373678  0.72110868    -0.00100
C2242       C  0.56332874  0.37699855  0.72430218    -0.08600
C2243       C  0.56628182  0.40620778  0.70791896     0.61800
H2244       H  0.55507169  0.40897762  0.74638291     0.12500
H2245       H  0.56485298  0.29220583  0.73483574     0.12500
C2246       C  0.55468337  0.29683398  0.77336040     0.62000
F2247       F  0.56367187  0.43696228  0.71484813    -0.23100
F2248       F  0.53582988  0.38789335  0.69487957    -0.20500
F2249       F  0.60209014  0.42189653  0.69833784    -0.20100
F2250       F  0.51823752  0.27965226  0.78239903    -0.20200
F2251       F  0.58359680  0.31716224  0.78682055    -0.20500
F2252       F  0.56018305  0.26726686  0.76717037    -0.23200
C2253       C  0.75049063  0.00030583  0.83321482    -0.06000
C2254       C  0.74971815  0.47689451  0.81896371    -0.00100
C2255       C  0.73676354  0.48414727  0.80023047    -0.08700
C2256       C  0.72875178  0.01655128  0.79653129    -0.06100
C2257       C  0.73304198  0.04015508  0.81176506    -0.00100
C2258       C  0.74197850  0.03063884  0.83074426    -0.08600
C2259       C  0.74286002  0.05098449  0.84900929     0.61800
H2260       H  0.75826799  0.99431070  0.84766672     0.12500
H2261       H  0.72019525  0.02364632  0.78240397     0.12500
C2262       C  0.73009816  0.45921748  0.78299330     0.62000
F2263       F  0.71657143  0.02358133  0.86270881    -0.23100
F2264       F  0.73264915  0.07943889  0.84558301    -0.20500
F2265       F  0.78019995  0.06800405  0.85692231    -0.20100
F2266       F  0.70208221  0.42075798  0.78792042    -0.20200
F2267       F  0.76511060  0.46166355  0.77770098    -0.20500
F2268       F  0.71651314  0.47138106  0.76672117    -0.23200
C2269       C  0.83454244  0.40678800  0.86606783    -0.06000
C2270       C  0.80413373  0.41584795  0.86582108    -0.00100
C2271       C  0.79557867  0.42804294  0.88321052    -0.08700
C2272       C  0.82122389  0.43602194  0.89910891    -0.06100
C2273       C  0.85270231  0.42873227  0.89901385    -0.00100
C2274       C  0.85840415  0.41203484  0.88256925    -0.08600
C2275       C  0.88861660  0.39876174  0.88249660     0.61800
H2276       H  0.84048932  0.39666571  0.85294661     0.12500
H2277       H  0.81906387  0.94018894  0.91084770     0.12500
C2278       C  0.76625487  0.93212839  0.88328580     0.62000
F2279       F  0.88328524  0.37597121  0.86692531    -0.23100
F2280       F  0.88503057  0.37650322  0.89956231    -0.20500
F2281       F  0.92621462  0.43084382  0.88106735    -0.20100
F2282       F  0.73538629  0.90248916  0.87365973    -0.20200
F2283       F  0.77011853  0.47076804  0.88529129    -0.20500
F2284       F  0.75563752  0.92762746  0.90283384    -0.23200
C2285       C  0.76692508  0.25334643  0.78075048    -0.06000
C2286       C  0.75323808  0.26803655  0.79481777    -0.00100
C2287       C  0.73270627  0.24321797  0.81155550    -0.08700
C2288       C  0.72673033  0.20480551  0.81330616    -0.06100
C2289       C  0.73987157  0.19009502  0.79892597    -0.00100
C2290       C  0.75993680  0.21491380  0.78209884    -0.08600
C2291       C  0.77317837  0.20279111  0.76443662     0.61800
H2292       H  0.78305284  0.27212962  0.76813171     0.12500
H2293       H  0.71188689  0.18589235  0.82610385     0.12500
C2294       C  0.71680153  0.25658054  0.82752427     0.62000
F2295       F  0.75448275  0.20735562  0.74792254    -0.23100
F2296       F  0.76472398  0.16452791  0.76597208    -0.20500
F2297       F  0.81336212  0.22676966  0.76167723    -0.20100
F2298       F  0.69303630  0.27029516  0.81944645    -0.20200
F2299       F  0.74781894  0.28586797  0.83723996    -0.20500
F2300       F  0.69442222  0.22645377  0.84122215    -0.23200
C2301       C  0.73794689  0.38872956  0.74233177    -0.06000
C2302       C  0.75819208  0.36792539  0.74559579    -0.00100
C2303       C  0.77236329  0.35827675  0.72914553    -0.08700
C2304       C  0.76148873  0.36550520  0.71024446    -0.06100
C2305       C  0.73652965  0.38111851  0.70739210    -0.00100
C2306       C  0.72660317  0.39522121  0.72349335    -0.08600
C2307       C  0.70176935  0.41478494  0.72162463     0.61800
H2308       H  0.72814268  0.39749422  0.75471028     0.12500
H2309       H  0.76828719  0.35433831  0.69775926     0.12500
C2310       C  0.79616877  0.33771296  0.73119864     0.62000
F2311       F  0.72206044  0.45100609  0.72944457    -0.23100
F2312       F  0.66678456  0.39209247  0.73189649    -0.20500
F2313       F  0.69311957  0.42044375  0.70239609    -0.20100
F2314       F  0.77131838  0.29856635  0.73635324    -0.20200
F2315       F  0.82490095  0.35434740  0.74525318    -0.20500
F2316       F  0.81484144  0.34041160  0.71377502    -0.23200
C2317       C  0.92792352  0.03648151  0.48541285    -0.06000
C2318       C  0.94796628  0.02552422  0.47279288    -0.03100
C2319       C  0.96432598  0.04830929  0.45502439    -0.08700
C2320       C  0.96355579  0.08318915  0.45170531    -0.06100
C2321       C  0.94451521  0.09483493  0.46455012    -0.00100
C2322       C  0.92420009  0.06975409  0.48113739    -0.08600
C2323       C  0.40954122  0.08581622  0.49213802     0.61800
H2324       H  0.91455548  0.01827044  0.49861935     0.12500
H2325       H  0.97749812  0.10123193  0.43849250     0.12500
C2326       C  0.98096748  0.03692772  0.43841478     0.62000
F2327       F  0.87327552  0.04362338  0.50582911    -0.23100
F2328       F  0.87144476  0.08297735  0.48141769    -0.20500
F2329       F  0.43357450  0.11856443  0.50218529    -0.20100
F2330       F  0.97763802  0.49856862  0.44081834    -0.20200
F2331       F  0.01933010  0.06607874  0.43443064    -0.20500
F2332       F  0.95898990  0.03337534  0.42174013    -0.23200
C2333       C  0.94480032  0.36088295  0.47185026    -0.06000
C2334       C  0.95156889  0.38239264  0.48838273    -0.00100
C2335       C  0.95885379  0.36789893  0.50652144    -0.08700
C2336       C  0.95944774  0.33271767  0.50723180    -0.06100
C2337       C  0.95240492  0.31055886  0.49072265    -0.00100
C2338       C  0.94494583  0.32539839  0.47259372    -0.08600
C2339       C  0.93725478  0.30456169  0.45398613     0.61800
H2340       H  0.93972847  0.37263549  0.45809041     0.12500
H2341       H  0.96536771  0.32251594  0.52127155     0.12500
C2342       C  0.47063612  0.38955902  0.52638867     0.62000
F2343       F  0.90483683  0.26758848  0.45681371    -0.23100
F2344       F  0.97027240  0.30269161  0.44934385    -0.20500
F2345       F  0.92951550  0.32350921  0.43825495    -0.20100
F2346       F  0.46423125  0.42080492  0.52552921    -0.20200
F2347       F  0.50855585  0.40217695  0.53289968    -0.20500
F2348       F  0.44442830  0.36164232  0.53995118    -0.23200
C2349       C  0.94659982  0.22618938  0.55231053    -0.06000
C2350       C  0.96473104  0.21788650  0.53729638    -0.00100
C2351       C  0.99283489  0.20621674  0.54238469    -0.08700
C2352       C  0.51294814  0.20731660  0.56046709    -0.06100
C2353       C  0.49491212  0.21658607  0.57501153    -0.00100
C2354       C  0.95822809  0.22687198  0.57199775    -0.08600
C2355       C  0.93889641  0.23712324  0.58768671     0.61800
H2356       H  0.92455044  0.23416723  0.54833185     0.12500
H2357       H  0.53686457  0.20226602  0.56479298     0.12500
C2358       C  0.01272221  0.19541080  0.52716545     0.62000
F2359       F  0.90877654  0.24261609  0.58021158    -0.23100
F2360       F  0.46760374  0.26587879  0.59397065    -0.20500
F2361       F  0.92310895  0.20695301  0.60204699    -0.20100
F2362       F  0.54852479  0.23774927  0.51309479    -0.20200
F2363       F  0.98492277  0.16212692  0.51853185    -0.20500
F2364       F  0.55663142  0.19639219  0.53388283    -0.23200
C2365       C  0.82581592  0.31588980  0.48575247    -0.06000
C2366       C  0.81797706  0.30878161  0.46584713    -0.00100
C2367       C  0.84008346  0.33919690  0.45147928    -0.08700
C2368       C  0.87072600  0.37476862  0.45771600    -0.06100
C2369       C  0.87912448  0.38154407  0.47759603    -0.00100
C2370       C  0.85559359  0.35186757  0.49196650    -0.08600
C2371       C  0.85961783  0.35579079  0.51386814     0.61800
H2372       H  0.80839223  0.29285856  0.49675344     0.12500
H2373       H  0.88964380  0.39732233  0.44695697     0.12500
C2374       C  0.83105821  0.33514251  0.42975162     0.62000
F2375       F  0.82457624  0.34985315  0.52151011    -0.23100
F2376       F  0.88916090  0.39183599  0.51894847    -0.20500
F2377       F  0.86721971  0.32758706  0.52230298    -0.20100
F2378       F  0.79151329  0.32230614  0.42676603    -0.20200
F2379       F  0.84045300  0.30897014  0.42260867    -0.20500
F2380       F  0.85250535  0.37039874  0.41900122    -0.23200
C2381       C  0.55807202  0.09159118  0.49860484    -0.06000
C2382       C  0.59033888  0.10546841  0.48575926    -0.00100
C2383       C  0.58882126  0.08071246  0.47107352    -0.08700
C2384       C  0.55422019  0.04415863  0.46955000    -0.06100
C2385       C  0.52316864  0.03005657  0.48313573    -0.00100
C2386       C  0.52605878  0.05374891  0.49850590    -0.08600
C2387       C  0.49993894  0.54305839  0.51863593     0.61800
H2388       H  0.55843307  0.10969596  0.50990493     0.12500
H2389       H  0.55135769  0.02575860  0.45788125     0.12500
C2390       C  0.62330350  0.09118325  0.45751179     0.62000
F2391       F  0.48294767  0.56615131  0.51984608    -0.23100
F2392       F  0.52248002  0.54754521  0.53519238    -0.20500
F2393       F  0.47036876  0.50437449  0.51886518    -0.20100
F2394       F  0.65576857  0.09723557  0.46849778    -0.20200
F2395       F  0.63217859  0.12438851  0.44577964    -0.20500
F2396       F  0.61508641  0.06157557  0.44527860    -0.23200
C2397       C  0.64501440  0.21019226  0.56401640    -0.06000
C2398       C  0.65157364  0.24852988  0.56301276    -0.00100
C2399       C  0.66233894  0.27081233  0.54479421    -0.08700
C2400       C  0.66385356  0.25276912  0.52802862    -0.06100
C2401       C  0.65569341  0.21392227  0.52906468    -0.00100
C2402       C  0.64748613  0.19260805  0.54741143    -0.08600
C2403       C  0.64267189  0.15198126  0.54969298     0.61800
H2404       H  0.63711677  0.19358219  0.57800000     0.12500
H2405       H  0.67071772  0.26868092  0.51385368     0.12500
C2406       C  0.67309845  0.31349777  0.54294610     0.62000
F2407       F  0.64261355  0.14011115  0.56918100    -0.23100
F2408       F  0.67356646  0.15188230  0.54042548    -0.20500
F2409       F  0.60745641  0.12508027  0.54165493    -0.20100
F2410       F  0.69900482  0.33373930  0.55757528    -0.20200
F2411       F  0.63949122  0.31625835  0.54435421    -0.20500
F2412       F  0.69124998  0.33143382  0.52514734    -0.23200
C2413       C  0.59494400  0.47729962  0.48540664    -0.06000
C2414       C  0.59496206  0.46143998  0.46763156    -0.00100
C2415       C  0.55975356  0.44322253  0.45670998    -0.08700
C2416       C  0.52709622  0.44480273  0.46321761    -0.06100
C2417       C  0.52640142  0.45936287  0.48129050    -0.00100
C2418       C  0.56106279  0.47567596  0.49279952    -0.08600
C2419       C  0.56245971  0.98637929  0.51102469     0.61800
H2420       H  0.62198149  0.49153060  0.49365366     0.12500
H2421       H  0.00086229  0.43076028  0.45389042     0.12500
C2422       C  0.55534766  0.42033160  0.43889828     0.62000
F2423       F  0.57306155  0.96678747  0.52510785    -0.23100
F2424       F  0.52811630  0.98381797  0.51712246    -0.20500
F2425       F  0.59158426  0.02534832  0.50974752    -0.20100
F2426       F  0.56856422  0.39425906  0.44329397    -0.20200
F2427       F  0.57650241  0.44536675  0.42319353    -0.20500
F2428       F  0.01770568  0.39173063  0.43556145    -0.23200
C2429       C  0.82553785  0.96257206  0.46884447    -0.06000
C2430       C  0.81041998  0.46030644  0.48984784    -0.00100
C2431       C  0.83079245  0.45059717  0.50478172    -0.08700
C2432       C  0.86419277  0.44926385  0.49958908    -0.06100
C2433       C  0.87665551  0.45367507  0.48026724    -0.00100
C2434       C  0.85883872  0.96010966  0.46406686    -0.08600
C2435       C  0.87238155  0.96964039  0.44291832     0.61800
H2436       H  0.81337834  0.97445232  0.45785725     0.12500
H2437       H  0.88261055  0.44687554  0.51093662     0.12500
C2438       C  0.81916824  0.44214236  0.52632696     0.62000
F2439       F  0.84158956  0.94560436  0.43114124    -0.23100
F2440       F  0.90348120  0.96396152  0.43944429    -0.20500
F2441       F  0.88325510  0.00807588  0.43766563    -0.20100
F2442       F  0.77966787  0.41435246  0.52849269    -0.20200
F2443       F  0.82745568  0.47646075  0.53432060    -0.20500
F2444       F  0.83998356  0.42753732  0.53695373    -0.23200
C2445       C  0.75327430  0.47352599  0.55253619    -0.06000
C2446       C  0.72421894  0.46720303  0.53839924    -0.00100
C2447       C  0.68452436  0.45051717  0.54489710    -0.08700
C2448       C  0.67526229  0.43464174  0.56425521    -0.06100
C2449       C  0.70341049  0.43307096  0.57680304    -0.00100
C2450       C  0.74351780  0.45477273  0.57140229    -0.08600
C2451       C  0.77529215  0.45532290  0.58466811     0.61800
H2452       H  0.78374165  0.49082824  0.54819535     0.12500
H2453       H  0.64487112  0.41967300  0.56920055     0.12500
C2454       C  0.65137974  0.44733828  0.53173533     0.62000
F2455       F  0.81251336  0.47840900  0.57649820    -0.23100
F2456       F  0.76885624  0.41771597  0.58798074    -0.20500
F2457       F  0.77458050  0.47006686  0.60232158    -0.20100
F2458       F  0.64359570  0.42087930  0.51767295    -0.20200
F2459       F  0.66182774  0.48366754  0.52289889    -0.20500
F2460       F  0.61680138  0.43458694  0.54216458    -0.23200
C2461       C  0.93246808  0.21710391  0.38393240    -0.06000
C2462       C  0.92660809  0.18653407  0.37262767    -0.00100
C2463       C  0.93922323  0.16047700  0.37985178    -0.08700
C2464       C  0.94849083  0.16010066  0.39972128    -0.06100
C2465       C  0.94845164  0.18701882  0.41227541    -0.00100
C2466       C  0.94559102  0.21903412  0.40342020    -0.08600
C2467       C  0.95491075  0.25443181  0.41423291     0.61800
H2468       H  0.92394497  0.23780961  0.37798160     0.12500
H2469       H  0.95414923  0.13728423  0.40550743     0.12500
C2470       C  0.93915623  0.13033585  0.36726408     0.62000
F2471       F  0.96078021  0.28559270  0.40152143    -0.23100
F2472       F  0.98917978  0.26612056  0.42478428    -0.20500
F2473       F  0.92375710  0.24516102  0.42647746    -0.20100
F2474       F  0.94580245  0.14387137  0.34779001    -0.20200
F2475       F  0.90330552  0.09602341  0.36911495    -0.20500
F2476       F  0.96873759  0.12255522  0.37300483    -0.23200
C2477       C  0.72368479  0.18467175  0.41091488    -0.06000
C2478       C  0.75638842  0.19766250  0.42332466    -0.00100
C2479       C  0.78833090  0.19270956  0.41841322    -0.08700
C2480       C  0.78782755  0.17770463  0.40040992    -0.06100
C2481       C  0.75637112  0.16697930  0.38739851    -0.00100
C2482       C  0.72298728  0.16914502  0.39289610    -0.08600
C2483       C  0.68650167  0.15411619  0.38024713     0.61800
H2484       H  0.69905114  0.18775674  0.41523579     0.12500
H2485       H  0.81292642  0.17541922  0.39604428     0.12500
C2486       C  0.82284407  0.20298493  0.43199181     0.62000
F2487       F  0.65551898  0.15349887  0.38985571    -0.23100
F2488       F  0.67450214  0.11635834  0.37546527    -0.20500
F2489       F  0.69454625  0.17788727  0.36329907    -0.20100
F2490       F  0.80941165  0.18667487  0.45066593    -0.20200
F2491       F  0.84544888  0.24308254  0.43245540    -0.20500
F2492       F  0.84662787  0.18908911  0.42580417    -0.23200
C2493       C  0.69720955  0.52841463  0.38435459    -0.06000
C2494       C  0.70908557  0.00346191  0.37468301    -0.00100
C2495       C  0.70684921  0.96878912  0.38313980    -0.08700
C2496       C  0.69669194  0.95851244  0.40318970    -0.06100
C2497       C  0.68904565  0.49000342  0.41479944    -0.00100
C2498       C  0.68913276  0.52236548  0.40453268    -0.08600
C2499       C  0.68103570  0.55062082  0.41473859     0.61800
H2500       H  0.69845341  0.55346358  0.37628106     0.12500
H2501       H  0.69410079  0.93179884  0.40992703     0.12500
C2502       C  0.71429889  0.94258467  0.37085674     0.62000
F2503       F  0.68775018  0.58252746  0.40247919    -0.23100
F2504       F  0.70520363  0.56431994  0.43081049    -0.20500
F2505       F  0.64208771  0.53195343  0.42068373    -0.20100
F2506       F  0.75251121  0.96259156  0.36366756    -0.20200
F2507       F  0.68843296  0.93098141  0.35532713    -0.20500
F2508       F  0.70895645  0.90939442  0.38159578    -0.23200
C2509       C  0.77429088  0.32409745  0.12544437    -0.06000
C2510       C  0.75812563  0.30811298  0.14421353    -0.00100
C2511       C  0.77706769  0.29248150  0.15661256    -0.08700
C2512       C  0.81028145  0.29247572  0.14952559    -0.06100
C2513       C  0.82662399  0.30840655  0.13082441    -0.00100
C2514       C  0.80891501  0.32594398  0.11868329    -0.08600
C2515       C  0.82652927  0.34786311  0.09907537     0.61800
H2516       H  0.75916675  0.33516779  0.11594458     0.12500
H2517       H  0.82363977  0.27950237  0.15906737     0.12500
C2518       C  0.76464991  0.27519963  0.17736432     0.62000
F2519       F  0.80695939  0.36654132  0.09128916    -0.23100
F2520       F  0.82416889  0.32222291  0.08560035    -0.20500
F2521       F  0.86547452  0.37628716  0.10150873    -0.20100
F2522       F  0.75589019  0.23666762  0.17837153    -0.20200
F2523       F  0.73241665  0.27614899  0.18390057    -0.20500
F2524       F  0.79547740  0.29573463  0.18989728    -0.23200
C2525       C  0.89600276  0.30031073  0.06661391    -0.06000
C2526       C  0.92243531  0.32084105  0.08139166    -0.00100
C2527       C  0.95970174  0.35371872  0.07634896    -0.08700
C2528       C  0.96855012  0.36558892  0.05646527    -0.06100
C2529       C  0.94013186  0.34806241  0.04196457    -0.00100
C2530       C  0.90385433  0.31409396  0.04687255    -0.08600
C2531       C  0.87199022  0.29532243  0.03172197     0.61800
H2532       H  0.86760061  0.27545692  0.07086756     0.12500
H2533       H  0.99582161  0.39203092  0.05228712     0.12500
C2534       C  0.98773473  0.37936704  0.09175818     0.62000
F2535       F  0.84059036  0.26031063  0.03902623    -0.23100
F2536       F  0.88716414  0.28780741  0.01561720    -0.20500
F2537       F  0.85810195  0.32033042  0.02594124    -0.20100
F2538       F  0.99926274  0.35819759  0.10413482    -0.20200
F2539       F  0.96915096  0.39387313  0.10258571    -0.20500
F2540       F  0.02150169  0.41073436  0.08347778    -0.23200
C2541       C  0.56082777  0.30763044  0.17199362    -0.06000
C2542       C  0.53625922  0.29979200  0.15563986    -0.00100
C2543       C  0.55013583  0.29687640  0.13716170    -0.08700
C2544       C  0.58843596  0.30265503  0.13599505    -0.06100
C2545       C  0.61168486  0.30822922  0.15269502    -0.00100
C2546       C  0.59718464  0.30966628  0.17115682    -0.08600
C2547       C  0.61617081  0.30966465  0.19075613     0.61800
H2548       H  0.55062270  0.30998314  0.18614818     0.12500
H2549       H  0.59998105  0.30080811  0.12214999     0.12500
C2550       C  0.52465556  0.28562410  0.11899698     0.62000
F2551       F  0.62071639  0.34057569  0.20104118    -0.23100
F2552       F  0.65236653  0.31252354  0.18918269    -0.20500
F2553       F  0.59168776  0.27516541  0.20146906    -0.20100
F2554       F  0.51616690  0.31462833  0.11321180    -0.20200
F2555       F  0.49007396  0.25067956  0.12289672    -0.20500
F2556       F  0.54329331  0.28066802  0.10342619    -0.23200
C2557       C  0.92817299  0.22929069  0.23604703    -0.06000
C2558       C  0.90216867  0.24059195  0.24263458    -0.00100
C2559       C  0.89160157  0.26351832  0.22996501    -0.08700
C2560       C  0.90608560  0.27269794  0.21062738    -0.06100
C2561       C  0.93040578  0.25944022  0.20356585    -0.00100
C2562       C  0.94151184  0.23695967  0.21654305    -0.08600
C2563       C  0.96463688  0.21821258  0.20986389     0.61800
H2564       H  0.93496121  0.21096833  0.24591461     0.12500
H2565       H  0.89798419  0.29023680  0.20091698     0.12500
C2566       C  0.86510725  0.27876250  0.23611024     0.62000
F2567       F  0.96384212  0.19073152  0.22371247    -0.23100
F2568       F  0.00361577  0.24646561  0.20673071    -0.20500
F2569       F  0.94869777  0.19923444  0.19286063    -0.20100
F2570       F  0.85534529  0.27098370  0.25581053    -0.20200
F2571       F  0.83078456  0.26198338  0.22535789    -0.20500
F2572       F  0.88424237  0.31889805  0.23241057    -0.23200
C2573       C  0.76984502  0.40662370  0.13085181    -0.06000
C2574       C  0.75873859  0.38254694  0.14832827    -0.00100
C2575       C  0.78174903  0.39716896  0.16536452    -0.08700
C2576       C  0.81300290  0.43567224  0.16455686    -0.06100
C2577       C  0.82122957  0.46093354  0.14789212    -0.00100
C2578       C  0.80116555  0.44578337  0.13026153    -0.08600
C2579       C  0.81219687  0.47072749  0.11114947     0.61800
H2580       H  0.75273122  0.39486148  0.11783011     0.12500
H2581       H  0.82989003  0.44705981  0.17772593     0.12500
C2582       C  0.77436220  0.37524253  0.18522307     0.62000
F2583       F  0.78766832  0.45074343  0.09602877    -0.23100
F2584       F  0.85033715  0.48154938  0.10590821    -0.20500
F2585       F  0.80965176  0.50390449  0.11323716    -0.20100
F2586       F  0.80496614  0.36818795  0.18930539    -0.20200
F2587       F  0.73932869  0.34043875  0.18639133    -0.20500
F2588       F  0.77336617  0.39792082  0.19952906    -0.23200
C2589       C  0.86300933  0.08724863  0.19478967    -0.06000
C2590       C  0.87426880  0.05888715  0.19677032    -0.00100
C2591       C  0.87719016  0.04363177  0.21548679    -0.08700
C2592       C  0.86592431  0.05555185  0.23178359    -0.06100
C2593       C  0.85217010  0.08250242  0.23003801    -0.00100
C2594       C  0.85187901  0.09965405  0.21103624    -0.08600
C2595       C  0.83994351  0.13058188  0.20738204     0.61800
H2596       H  0.86158161  0.09853217  0.18012875     0.12500
H2597       H  0.86721322  0.04292688  0.24608259     0.12500
C2598       C  0.91049168  0.55087322  0.20805504     0.62000
F2599       F  0.84516244  0.14464370  0.18796832    -0.23100
F2600       F  0.86279047  0.16195091  0.21851935    -0.20500
F2601       F  0.80061881  0.11508720  0.21207742    -0.20100
F2602       F  0.94176862  0.57713505  0.19617353    -0.20200
F2603       F  0.89439818  0.51407222  0.20097307    -0.20500
F2604       F  0.92496911  0.54987484  0.22660381    -0.23200
C2605       C  0.56929678  0.19206023  0.12036778    -0.06000
C2606       C  0.53795427  0.17224764  0.13392121    -0.00100
C2607       C  0.54374893  0.18610937  0.15318574    -0.08700
C2608       C  0.58053512  0.21843508  0.15774183    -0.06100
C2609       C  0.61127533  0.23770744  0.14395856    -0.00100
C2610       C  0.60483742  0.22542460  0.12461067    -0.08600
C2611       C  0.63302353  0.24698106  0.10742319     0.61800
H2612       H  0.56605900  0.18222937  0.10582431     0.12500
H2613       H  0.58552200  0.22961514  0.17214632     0.12500
C2614       C  0.01248202  0.16637541  0.16933154     0.62000
F2615       F  0.61296452  0.25454253  0.09244680    -0.23100
F2616       F  0.64648286  0.22353625  0.10070805    -0.20500
F2617       F  0.66515569  0.28236741  0.11176225    -0.20100
F2618       F  0.00139166  0.12797448  0.17481317    -0.20200
F2619       F  0.98039025  0.16866127  0.16212370    -0.20500
F2620       F  0.02453926  0.18707180  0.18609970    -0.23200
C2621       C  0.97982704  0.09265164  0.04613049    -0.06000
C2622       C  0.94546751  0.05789147  0.04210334    -0.00100
C2623       C  0.91555464  0.03932093  0.05663549    -0.08700
C2624       C  0.92288627  0.05397129  0.07528470    -0.06100
C2625       C  0.95886673  0.08679621  0.08018764    -0.00100
C2626       C  0.98768402  0.10726354  0.06498883    -0.08600
C2627       C  0.53582833  0.13193203  0.07189026     0.61800
H2628       H  0.51184406  0.09897081  0.03736404     0.12500
H2629       H  0.90007237  0.03836084  0.08631994     0.12500
C2630       C  0.87660723  0.52648318  0.04312327     0.62000
F2631       F  0.56280318  0.13769731  0.05753495    -0.23100
F2632       F  0.54587040  0.11779027  0.08875314    -0.20500
F2633       F  0.02330065  0.17209562  0.07544951    -0.20100
F2634       F  0.87506780  0.49103033  0.04215986    -0.20200
F2635       F  0.86981295  0.53831650  0.02468712    -0.20500
F2636       F  0.84666206  0.52100418  0.05551005    -0.23200
C2637       C  0.69610269  0.21974292  0.13804441    -0.06000
C2638       C  0.68137535  0.23179303  0.15306205    -0.00100
C2639       C  0.66279054  0.20491855  0.16955536    -0.08700
C2640       C  0.65844352  0.16753045  0.16982156    -0.06100
C2641       C  0.67351986  0.15551406  0.15509133    -0.00100
C2642       C  0.69350804  0.18256507  0.13898263    -0.08600
C2643       C  0.71294796  0.17299198  0.12308300     0.61800
H2644       H  0.70973270  0.23982124  0.12543325     0.12500
H2645       H  0.64336403  0.14742952  0.18225842     0.12500
C2646       C  0.64836634  0.21338572  0.18803364     0.62000
F2647       F  0.73561309  0.20528192  0.11053946    -0.23100
F2648       F  0.68438522  0.14404525  0.11215583    -0.20500
F2649       F  0.73744758  0.16038610  0.13140342    -0.20100
F2650       F  0.60862717  0.18690566  0.19080119    -0.20200
F2651       F  0.65407160  0.25052930  0.18777020    -0.20500
F2652       F  0.66841613  0.20887409  0.20398066    -0.23200
C2653       C  0.65264617  0.05563489  0.23700397    -0.06000
C2654       C  0.67816768  0.04132467  0.24168559    -0.00100
C2655       C  0.68959388  0.02540540  0.22700848    -0.08700
C2656       C  0.68093984  0.03081587  0.20739331    -0.06100
C2657       C  0.65978684  0.05012239  0.20238340    -0.00100
C2658       C  0.64194778  0.05896598  0.21754561    -0.08600
C2659       C  0.61294995  0.07339682  0.21406713     0.61800
H2660       H  0.64345174  0.06717610  0.24843626     0.12500
H2661       H  0.69362414  0.02289821  0.19587620     0.12500
C2662       C  0.71622410  0.00851466  0.23159318     0.62000
F2663       F  0.58146791  0.05314151  0.22695555    -0.23100
F2664       F  0.59779578  0.06771026  0.19534555    -0.20500
F2665       F  0.63135392  0.11273834  0.21743253    -0.20100
F2666       F  0.70813477  0.98988473  0.25011853    -0.20200
F2667       F  0.75508335  0.03817289  0.23069998    -0.20500
F2668       F  0.71073330  0.98137289  0.21830384    -0.23200
C2669       C  0.66936375  0.38231861  0.12376058    -0.06000
C2670       C  0.68270438  0.38080726  0.14285789    -0.00100
C2671       C  0.68893081  0.41085596  0.15521245    -0.08700
C2672       C  0.68139388  0.44054397  0.14800204    -0.06100
C2673       C  0.66492942  0.44047765  0.12946380    -0.00100
C2674       C  0.65870954  0.41023921  0.11699130    -0.08600
C2675       C  0.64016877  0.40587195  0.09683727     0.61800
H2676       H  0.66542894  0.35961973  0.11440268     0.12500
H2677       H  0.68703229  0.46339046  0.15766175     0.12500
C2678       C  0.70240188  0.41353594  0.17619177     0.62000
F2679       F  0.63619524  0.37362779  0.08795728    -0.23100
F2680       F  0.66355069  0.43855050  0.08473333    -0.20500
F2681       F  0.60280914  0.40087849  0.09841365    -0.20100
F2682       F  0.70489219  0.38165275  0.18302973    -0.20200
F2683       F  0.67599062  0.41637001  0.18804369    -0.20500
F2684       F  0.73900786  0.44663951  0.17767754    -0.23200
C2685       C  0.55524698  0.50659164  0.06627548    -0.06000
C2686       C  0.56764841  0.49805348  0.04916468    -0.00100
C2687       C  0.60001212  0.49130066  0.04995038    -0.08700
C2688       C  0.61884414  0.49374585  0.06795096    -0.06100
C2689       C  0.60616891  0.50187671  0.08508390    -0.00100
C2690       C  0.57345777  0.50812138  0.08436126    -0.08600
C2691       C  0.56839399  0.03088612  0.09962258     0.61800
H2692       H  0.53059546  0.51172290  0.06538578     0.12500
H2693       H  0.64384624  0.48919974  0.06881285     0.12500
C2694       C  0.61388645  0.47999192  0.03223368     0.62000
F2695       F  0.53612328  0.03544537  0.09551098    -0.23100
F2696       F  0.60028659  0.06740347  0.10268524    -0.20500
F2697       F  0.54750647  0.48409306  0.11653434    -0.20100
F2698       F  0.62964684  0.51083039  0.01822455    -0.20200
F2699       F  0.58250102  0.44756924  0.02449741    -0.20500
F2700       F  0.64279951  0.47065599  0.03698070    -0.23200
C2701       C  0.62692220  0.00002667  0.10338174     0.80000
N2702       N  0.63660932  0.97172607  0.10800558    -0.78300
C2703       C  0.65639354  0.97201384  0.12472511     0.82400
N2704       N  0.66529714  0.00083211  0.13707769    -0.78300
C2705       C  0.65007081  0.52634095  0.13426217     0.82500
N2706       N  0.63394190  0.52811023  0.11684744    -0.80000
C2707       C  0.64743455  0.55945764  0.18300944     0.80000
N2708       N  0.65364172  0.59595537  0.17838403    -0.78300
C2709       C  0.65818827  0.61076237  0.15949921     0.82400
N2710       N  0.65701210  0.58809347  0.14499450    -0.78300
C2711       C  0.65257943  0.55191637  0.14956531     0.82500
N2712       N  0.64783723  0.53795385  0.16851332    -0.80000
C2713       C  0.96050085  0.60974296  0.09657843     0.80000
N2714       N  0.99296339  0.64033619  0.10402521    -0.78300
C2715       C  0.99623891  0.64643101  0.12350678     0.82400
N2716       N  0.96595550  0.62151433  0.13549586    -0.78300
C2717       C  0.93309754  0.59122182  0.12842734     0.82500
N2718       N  0.93058903  0.58505778  0.10905620    -0.80000
C2719       C  0.86847147  0.55470130  0.17198958     0.80000
N2720       N  0.89733068  0.57873212  0.15905049    -0.78300
C2721       C  0.90108949  0.56519256  0.14194437     0.82400
N2722       N  0.88214961  0.01723010  0.14353988    -0.78300
C2723       C  0.85402581  0.99332612  0.15687222     0.82500
N2724       N  0.85276782  0.00679370  0.17440642    -0.80000
C2725       C  0.93729432  0.76239484  0.18146838     0.80000
N2726       N  0.97435807  0.77077938  0.17752773    -0.78300
C2727       C  0.99030160  0.78294544  0.15928969     0.82400
N2728       N  0.96795613  0.78674782  0.14461901    -0.78300
C2729       C  0.93043729  0.77855672  0.14837409     0.82500
N2730       N  0.91551847  0.76678119  0.16689467    -0.80000
C2731       C  0.89222509  0.79357861  0.09994425     0.80000
N2732       N  0.91523467  0.78807083  0.11360771    -0.78300
C2733       C  0.90599571  0.78394116  0.13304247     0.82400
N2734       N  0.87400228  0.78581801  0.13867281    -0.78300
C2735       C  0.85118983  0.79191404  0.12529740     0.82500
N2736       N  0.86040226  0.79518993  0.10608617    -0.80000
C2737       C  0.68374204  0.84322644  0.15211682     0.02000
C2738       C  0.64729785  0.80806694  0.15339733     0.02000
C2739       C  0.64547160  0.77209594  0.15095830     0.02000
C2740       C  0.67971660  0.76886450  0.15235299     0.02000
C2741       C  0.71726027  0.80362181  0.15239378     0.02000
C2742       C  0.71894279  0.84086732  0.15233458     0.02000
Zr2743     Zr  0.79614134  0.59851956  0.34492688     2.17500
O2744       O  0.80298174  0.56662175  0.37531328    -0.51600
O2745       O  0.77206410  0.62379601  0.36941028    -0.74800
O2746       O  0.86069652  0.63534523  0.35883680    -0.81600
O2747       O  0.69416849  0.51667730  0.34089001    -0.83300
O2748       O  0.89782885  0.69011808  0.33921636    -0.78900
O2749       O  0.75381055  0.52887086  0.35009433    -0.90600
O2750       O  0.75509066  0.66531374  0.35374375    -0.76500
O2751       O  0.81447919  0.66275956  0.33229306    -0.86000
O2752       O  0.73719381  0.59526527  0.33252346    -0.85700
O2753       O  0.84695960  0.61499175  0.32095441    -0.72500
O2754       O  0.77323644  0.55071265  0.32064255    -0.84600
Zr2755     Zr  0.78202150  0.62803380  0.27135716     2.26400
Zr2756     Zr  0.86361742  0.67932245  0.30775308     2.06300
Zr2757     Zr  0.71407940  0.54770022  0.30805065     2.10000
Zr2758     Zr  0.75620349  0.65918807  0.31916247     1.78800
O2759       O  0.68548192  0.47760732  0.30528472    -0.93400
O2760       O  0.79174366  0.72922790  0.32349907    -0.41200
O2761       O  0.73150382  0.61188306  0.29487346    -0.77900
O2762       O  0.80541757  0.67720161  0.29463528    -0.96500
O2763       O  0.84130738  0.63227207  0.28344908    -0.89800
O2764       O  0.76390344  0.56382679  0.28393037    -0.92700
C2765       C  0.76053251  0.64897747  0.36924431     1.01100
C2766       C  0.71741844  0.51478604  0.35377544     1.14000
C2767       C  0.89152153  0.66862534  0.35515281     1.04800
O2768       O  0.87962198  0.74644552  0.31144589    -0.94800
O2769       O  0.88558280  0.70683150  0.27407999    -0.90600
O2770       O  0.83098255  0.68801524  0.25542699    -0.83700
C2771       C  0.86805985  0.70771313  0.25802179     1.11400
O2772       O  0.83535248  0.52509105  0.31841646    -0.96800
Zr2773     Zr  0.82304646  0.56834298  0.29616338     1.88900
O2774       O  0.80880594  0.60723340  0.24654243    -0.73500
O2775       O  0.93351816  0.70092038  0.30517206    -0.52700
O2776       O  0.89220061  0.58643748  0.29558170    -0.97400
O2777       O  0.79307049  0.50280627  0.28417917    -0.54600
O2778       O  0.83826638  0.57606833  0.26120919    -0.74000
C2779       C  0.82892952  0.59010102  0.24586127     0.98400
O2780       O  0.75194482  0.65740245  0.25003212    -0.62800
O2781       O  0.64921243  0.54104019  0.31129528    -0.57600
O2782       O  0.72349804  0.58397417  0.25481868    -0.94300
O2783       O  0.68185199  0.53433150  0.27617221    -0.92700
O2784       O  0.68814285  0.63954394  0.32661047    -0.93100
O2785       O  0.73130346  0.69298753  0.29746549    -0.91900
C2786       C  0.69144217  0.55226141  0.25913715     1.17200
H2787       H  0.71762079  0.58777562  0.34270589     0.33100
H2788       H  0.81170069  0.70224486  0.28836467     0.44000
H2789       H  0.75390985  0.54566370  0.27379423     0.37500
H2790       H  0.86974057  0.61511870  0.32677248     0.34000
H2791       H  0.77251543  0.73426885  0.32991232     0.25800
H2792       H  0.93558219  0.68720270  0.29406549     0.31700
H2793       H  0.90535206  0.61145974  0.28755831     0.37600
H2794       H  0.67320357  0.61100129  0.32517914     0.32100
H2795       H  0.63053055  0.51501649  0.30652439     0.31000
H2796       H  0.65753691  0.46810284  0.30194042     0.32700
H2797       H  0.81563311  0.50042540  0.27983990     0.31600
H2798       H  0.71192249  0.67265159  0.28907636     0.35600
H2799       H  0.76118547  0.68355666  0.25496041     0.28400
H2800       H  0.81197618  0.58634130  0.38527848     0.32600
H2801       H  0.81127202  0.51048621  0.32664978     0.35400
H2802       H  0.64406875  0.53805598  0.32556894     0.28000
H2803       H  0.76494899  0.66256435  0.23709040     0.40900
H2804       H  0.89906585  0.76200227  0.30090516     0.31000
H2805       H  0.81134061  0.73295583  0.33377748     0.38600
H2806       H  0.77960211  0.50362140  0.27188691     0.30400
H2807       H  0.94610023  0.72871747  0.30033367     0.30500
H2808       H  0.82562032  0.56275446  0.37313165     0.30800
C2809       C  0.73935094  0.96654910  0.51653027     0.80000
N2810       N  0.71419442  0.96591859  0.50238402    -0.78300
C2811       C  0.72001695  0.96228505  0.48331472     0.82400
N2812       N  0.75333543  0.46835754  0.47934362    -0.78300
C2813       C  0.77577848  0.95757438  0.49237865     0.82500
N2814       N  0.77036456  0.96292270  0.51117704    -0.80000
C2815       C  0.67692808  0.96958301  0.43547075     0.80000
N2816       N  0.64184553  0.96445748  0.44139992    -0.78300
C2817       C  0.63109082  0.95736917  0.46055327     0.82400
N2818       N  0.65678603  0.95667533  0.47404215    -0.78300
C2819       C  0.69210947  0.96164370  0.46837505     0.82500
N2820       N  0.70212256  0.96798907  0.44901304    -0.80000
C2821       C  0.65604006  0.70283297  0.50912607     0.80000
N2822       N  0.68648637  0.72094994  0.49618315    -0.78300
C2823       C  0.68586943  0.70326958  0.47970852     0.82400
N2824       N  0.65462124  0.66747142  0.47626536    -0.78300
C2825       C  0.62393860  0.64913734  0.48912682     0.82500
N2826       N  0.62511186  0.66747219  0.50539645    -0.80000
C2827       C  0.75372046  0.71727293  0.43955675     0.80000
N2828       N  0.72091276  0.70214678  0.45094504    -0.78300
C2829       C  0.72023752  0.72123563  0.46655114     0.82400
N2830       N  0.75249567  0.75577642  0.47062602    -0.78300
C2831       C  0.78517982  0.77159590  0.45901848     0.82500
N2832       N  0.78565141  0.75200915  0.44359091    -0.80000
C2833       C  0.97936288  0.73628633  0.51339368     0.80000
N2834       N  0.97647835  0.71502305  0.49819124    -0.78300
C2835       C  0.97196506  0.72635043  0.47965730     0.82400
N2836       N  0.97000774  0.75973748  0.47635726    -0.78300
C2837       C  0.97232148  0.78148108  0.49164429     0.82500
N2838       N  0.97692936  0.76914241  0.51004461    -0.80000
C2839       C  0.95618601  0.68184441  0.43120617     0.80000
N2840       N  0.96257963  0.70824734  0.44480296    -0.78300
C2841       C  0.96674566  0.69995337  0.46410200     0.82400
N2842       N  0.45454805  0.66098418  0.47017476    -0.78300
C2843       C  0.45151393  0.63616001  0.45674270     0.82500
N2844       N  0.95392479  0.64742299  0.43738610    -0.80000
C2845       C  0.95057327  0.98977718  0.47847074     0.02000
C2846       C  0.91652458  0.95221708  0.47819798     0.02000
C2847       C  0.91936679  0.91800207  0.48174292     0.02000
C2848       C  0.95653644  0.92155649  0.48607901     0.02000
C2849       C  0.99096696  0.95941808  0.48605524     0.02000
C2850       C  0.98749648  0.99351710  0.48355108     0.02000
C2851       C  0.76112357  0.85671151  0.76497073     0.80000
N2852       N  0.76461442  0.88001135  0.77942274    -0.78300
C2853       C  0.76643482  0.86920045  0.79845424     0.82400
N2854       N  0.76402209  0.83403157  0.80319343    -0.78300
C2855       C  0.75906759  0.80951518  0.78886683     0.82500
N2856       N  0.75780171  0.82134655  0.76984983    -0.80000
C2857       C  0.79387672  0.92333835  0.84385203     0.80000
N2858       N  0.78834721  0.89658994  0.83076500    -0.78300
C2859       C  0.77038446  0.89594147  0.81345948     0.82400
N2860       N  0.75820319  0.92225312  0.80929013    -0.78300
C2861       C  0.76321160  0.94901308  0.82214464     0.82500
N2862       N  0.78151547  0.94940954  0.83936332    -0.80000
C2863       C  0.54944489  0.86724303  0.77938323     0.80000
N2864       N  0.51938028  0.84394731  0.79189517    -0.78300
C2865       C  0.51559506  0.85765171  0.80890198     0.82400
N2866       N  0.54158102  0.89515599  0.81319960    -0.78300
C2867       C  0.57147375  0.91883053  0.80055655     0.82500
N2868       N  0.57491364  0.90460981  0.78366899    -0.80000
C2869       C  0.96279704  0.81631861  0.85507035     0.80000
N2870       N  0.48320622  0.84092574  0.84093228    -0.78300
C2871       C  0.48242350  0.83244626  0.82203463     0.82400
N2872       N  0.95501614  0.79843726  0.81691915    -0.78300
C2873       C  0.92448559  0.77684503  0.82943902     0.82500
N2874       N  0.92852690  0.78623538  0.84857555    -0.80000
C2875       C  0.53138330  0.63823957  0.84664565     0.80000
N2876       N  0.56041858  0.63180603  0.84098068    -0.78300
C2877       C  0.56675387  0.62987561  0.82180428     0.82400
N2878       N  0.54364627  0.63474341  0.80811956    -0.78300
C2879       C  0.51404751  0.64054266  0.81365509     0.82500
N2880       N  0.50765390  0.64172439  0.83291418    -0.80000
C2881       C  0.96954624  0.63623350  0.76726239     0.80000
N2882       N  0.93334152  0.62804872  0.77332908    -0.78300
C2883       C  0.92351972  0.62343723  0.79266858     0.82400
N2884       N  0.95063774  0.62679138  0.80606287    -0.78300
C2885       C  0.98684393  0.63458510  0.80045036     0.82500
N2886       N  0.99634123  0.63908282  0.78105807    -0.80000
C2887       C  0.73945866  0.65227900  0.80132244     0.02000
C2888       C  0.70225417  0.61664781  0.80178923     0.02000
C2889       C  0.70115981  0.57974438  0.80440518     0.02000
C2890       C  0.73663303  0.57874694  0.80715234     0.02000
C2891       C  0.77306337  0.61382811  0.80591218     0.02000
C2892       C  0.77396750  0.65005790  0.80541581     0.02000
Zr2893     Zr  0.97515990  0.97621948  0.93730554     2.17500
O2894       O  0.52130170  0.99904872  0.91168627    -0.51600
O2895       O  0.92344724  0.95642928  0.91323820    -0.74800
O2896       O  0.97732193  0.92477928  0.92096581    -0.81600
O2897       O  0.98085278  0.57806031  0.94126253    -0.83300
O2898       O  0.96300091  0.87392163  0.94318850    -0.78900
O2899       O  0.97744346  0.53588644  0.91913879    -0.90600
O2900       O  0.86634517  0.93042014  0.93035371    -0.76500
O2901       O  0.92299468  0.91629030  0.95114785    -0.86000
O2902       O  0.93127625  0.99269972  0.95180417    -0.85700
O2903       O  0.00574045  0.95159542  0.96016602    -0.72500
O2904       O  0.51595911  0.52858561  0.95694215    -0.84600
Zr2905     Zr  0.94574228  0.95394274  0.01251875     2.26400
Zr2906     Zr  0.95280955  0.89219102  0.97475111     2.06300
Zr2907     Zr  0.96735652  0.54308743  0.97350144     2.10000
Zr2908     Zr  0.87924464  0.93291205  0.96532011     1.78800
O2909       O  0.52807589  0.61351118  0.97465708    -0.93400
O2910       O  0.82832918  0.86619049  0.95944008    -0.41200
O2911       O  0.91518118  0.97880881  0.98962263    -0.77900
O2912       O  0.90707567  0.90685775  0.98913728    -0.96500
O2913       O  0.99010748  0.93776741  0.99865997    -0.89800
O2914       O  0.99840825  0.01387968  0.99893931    -0.92700
C2915       C  0.88592475  0.94041971  0.91418790     1.01100
C2916       C  0.49282300  0.57257130  0.92303153     1.14000
C2917       C  0.97188758  0.89053120  0.92586961     1.04800
O2918       O  0.90098113  0.82605201  0.96875320    -0.94800
O2919       O  0.93215334  0.85224653  0.00552430    -0.90600
O2920       O  0.92675676  0.89025573  0.02739102    -0.83700
C2921       C  0.92451522  0.85854589  0.02261115     1.11400
O2922       O  0.59256080  0.02422396  0.95632664    -0.96800
Zr2923     Zr  0.54002252  0.99872761  0.98083294     1.88900
O2924       O  0.99839989  0.96894186  0.03612720    -0.73500
O2925       O  0.00349188  0.87449603  0.98073840    -0.52700
O2926       O  0.58132729  0.96902076  0.98048604    -0.97400
O2927       O  0.59550193  0.57246413  0.98456461    -0.54600
O2928       O  0.55835683  0.99726104  0.01482986    -0.74000
C2929       C  0.53996525  0.98757276  0.03129558     0.98400
O2930       O  0.89307325  0.93214683  0.03661939    -0.62800
O2931       O  0.91978269  0.56546652  0.97006275    -0.57600
O2932       O  0.94861773  0.51372044  0.02791380    -0.94300
O2933       O  0.95812846  0.56237290  0.00516421    -0.92700
O2934       O  0.84153933  0.96589642  0.95865773    -0.93100
O2935       O  0.82619482  0.91035946  0.98929239    -0.91900
C2936       C  0.95168680  0.54680321  0.02272254     1.17200
H2937       H  0.91503661  0.50338951  0.94226484     0.33100
H2938       H  0.88595734  0.88353641  0.99555930     0.44000
H2939       H  0.52057337  0.54349847  0.00473816     0.37500
H2940       H  0.02336411  0.94602787  0.95322695     0.34000
H2941       H  0.83840667  0.85881552  0.94831791     0.25800
H2942       H  0.01240677  0.88188009  0.99426073     0.31700
H2943       H  0.56399765  0.94158994  0.98540277     0.37600
H2944       H  0.81575146  0.94528745  0.95399090     0.32100
H2945       H  0.91131448  0.56181730  0.95624206     0.31000
H2946       H  0.51610770  0.63022770  0.97218226     0.32700
H2947       H  0.59603822  0.57600564  0.99877702     0.31600
H2948       H  0.83466952  0.90012674  0.00083091     0.35600
H2949       H  0.87061525  0.90821908  0.03167673     0.28400
H2950       H  0.50986955  0.00236802  0.89914126     0.32600
H2951       H  0.57917599  0.01258425  0.94404844     0.35400
H2952       H  0.89643464  0.54536367  0.97764266     0.28000
H2953       H  0.90175587  0.92314252  0.04855655     0.40900
H2954       H  0.88022276  0.82946586  0.96198995     0.31000
H2955       H  0.82947280  0.85007149  0.97082906     0.38600
H2956       H  0.58372624  0.58771323  0.97866960     0.30400
H2957       H  0.98894355  0.84554354  0.98168279     0.30500
H2958       H  0.54082707  0.02593174  0.91511520     0.30800
Zr2959     Zr  0.61642578  0.78575011  0.67814252     2.17500
O2960       O  0.64133369  0.75372316  0.70115747    -0.51600
O2961       O  0.59138534  0.80749734  0.70333906    -0.74800
O2962       O  0.67443393  0.83220202  0.69444219    -0.81600
O2963       O  0.51697561  0.69528148  0.67263276    -0.83300
O2964       O  0.71496762  0.88200945  0.67294330    -0.78900
O2965       O  0.56844403  0.72461125  0.69351135    -0.90600
O2966       O  0.56358858  0.83932259  0.68746165    -0.76500
O2967       O  0.62857898  0.84834892  0.66578435    -0.86000
O2968       O  0.55533864  0.77533143  0.66503431    -0.85700
O2969       O  0.66886562  0.80716119  0.65495475    -0.72500
O2970       O  0.59925812  0.73798763  0.65448254    -0.84600
Zr2971     Zr  0.60357168  0.81305532  0.60398448     2.26400
Zr2972     Zr  0.67987930  0.86960359  0.64180274     2.06300
Zr2973     Zr  0.53880127  0.72938893  0.64044029     2.10000
Zr2974     Zr  0.56772969  0.83723260  0.65213134     1.78800
O2975       O  0.52075776  0.66121703  0.63864686    -0.93400
O2976       O  0.59334540  0.90676499  0.65567011    -0.41200
O2977       O  0.55069972  0.79187824  0.62707045    -0.77900
O2978       O  0.61913066  0.86019871  0.62790461    -0.96500
O2979       O  0.66431572  0.82347165  0.61735356    -0.89800
O2980       O  0.59052271  0.75052468  0.61688079    -0.92700
C2981       C  0.57369891  0.82726156  0.70317944     1.01100
C2982       C  0.53342133  0.69849008  0.68942030     1.14000
C2983       C  0.70627257  0.86400643  0.68998081     1.04800
O2984       O  0.69240606  0.93450497  0.64848235    -0.94800
O2985       O  0.70090242  0.90776711  0.61027297    -0.90600
O2986       O  0.65309357  0.87365565  0.58836183    -0.83700
C2987       C  0.68577195  0.90321216  0.59305530     1.11400
O2988       O  0.68178781  0.73299319  0.65218425    -0.96800
Zr2989     Zr  0.65071549  0.76075253  0.63052507     1.88900
O2990       O  0.62854638  0.78886518  0.57957620    -0.73500
O2991       O  0.74974044  0.89163424  0.63866253    -0.52700
O2992       O  0.72008694  0.78538851  0.62363650    -0.97400
O2993       O  0.61787265  0.69082245  0.62582930    -0.54600
O2994       O  0.65600776  0.75680966  0.59578155    -0.74000
C2995       C  0.64556746  0.76839603  0.58002476     0.98400
O2996       O  0.57779367  0.84500959  0.58146074    -0.62800
O2997       O  0.47009398  0.71284842  0.64225670    -0.57600
O2998       O  0.54626896  0.76612359  0.58741489    -0.94300
O2999       O  0.50787988  0.71355268  0.60811513    -0.92700
O3000       O  0.49757409  0.80714366  0.65939577    -0.93100
O3001       O  0.53075222  0.85978744  0.63144782    -0.91900
C3002       C  0.51635177  0.73226350  0.59121394     1.17200
H3003       H  0.53498284  0.76570551  0.67501214     0.33100
H3004       H  0.62305295  0.88439312  0.62155179     0.44000
H3005       H  0.58240626  0.73195456  0.60688602     0.37500
H3006       H  0.69226616  0.81000073  0.66139926     0.34000
H3007       H  0.60079123  0.91925251  0.64227261     0.25800
H3008       H  0.75261142  0.88360876  0.62570259     0.31700
H3009       H  0.73133802  0.81385657  0.62082933     0.37600
H3010       H  0.49584938  0.82061150  0.67070084     0.32100
H3011       H  0.95676849  0.67318802  0.64883433     0.31000
H3012       H  0.53278077  0.66048477  0.62625464     0.32700
H3013       H  0.61530599  0.67798063  0.63904463     0.31600
H3014       H  0.54410766  0.86667678  0.61852172     0.35600
H3015       H  0.57710431  0.83489563  0.56850615     0.28400
H3016       H  0.64091470  0.76338385  0.71409454     0.32600
H3017       H  0.67113704  0.73164404  0.66535620     0.35400
H3018       H  0.46381771  0.70967997  0.65641179     0.28000
H3019       H  0.54978845  0.83370948  0.58526013     0.40900
H3020       H  0.72008752  0.94849898  0.65291912     0.31000
H3021       H  0.57015987  0.90889197  0.65911919     0.38600
H3022       H  0.63749625  0.68706383  0.61892759     0.30400
H3023       H  0.76280153  0.92050838  0.63716936     0.30500
H3024       H  0.66961422  0.76522925  0.69790087     0.30800
C3025       C  0.83706504  0.62214690  0.81898761    -0.06000
C3026       C  0.81023139  0.61242965  0.80343820    -0.00100
C3027       C  0.81970117  0.60246082  0.78558920    -0.08700
C3028       C  0.85509629  0.60256766  0.78402853    -0.06100
C3029       C  0.88379736  0.61612978  0.79854871    -0.00100
C3030       C  0.87401943  0.62443287  0.81693801    -0.08600
C3031       C  0.90153007  0.63520575  0.83439411     0.61800
H3032       H  0.82923506  0.62923177  0.83256526     0.12500
H3033       H  0.86110044  0.59356874  0.77053319     0.12500
C3034       C  0.79560693  0.59342469  0.76700417     0.62000
F3035       F  0.93658416  0.66929634  0.82989545    -0.23100
F3036       F  0.90886227  0.60507844  0.83946989    -0.20500
F3037       F  0.88537298  0.64116729  0.85067189    -0.20100
F3038       F  0.78409731  0.55572136  0.76234702    -0.20200
F3039       F  0.81885050  0.61893405  0.75184522    -0.20500
F3040       F  0.76266639  0.59698125  0.76827559    -0.23200
C3041       C  0.48252336  0.68545921  0.71269634    -0.06000
C3042       C  0.50942970  0.67513341  0.70634376    -0.00100
C3043       C  0.52039040  0.65254854  0.71886068    -0.08700
C3044       C  0.50626042  0.64357051  0.73822527    -0.06100
C3045       C  0.98037429  0.64371239  0.74586919    -0.00100
C3046       C  0.96505154  0.66141013  0.73216115    -0.08600
C3047       C  0.93616995  0.67401968  0.73798335     0.61800
H3048       H  0.96977388  0.68594853  0.70251394     0.12500
H3049       H  0.51514356  0.62707179  0.74820418     0.12500
C3050       C  0.54660846  0.63793822  0.71159107     0.62000
F3051       F  0.92989692  0.69543109  0.72298523    -0.23100
F3052       F  0.95072889  0.69733621  0.75375031    -0.20500
F3053       F  0.90016066  0.64147143  0.74271601    -0.20100
F3054       F  0.58430809  0.66883096  0.70800168    -0.20200
F3055       F  0.53138323  0.61933100  0.69444011    -0.20500
F3056       F  0.54886408  0.61155148  0.72509209    -0.23200
C3057       C  0.64577145  0.60101881  0.82280843    -0.06000
C3058       C  0.66492333  0.61742859  0.80469834    -0.00100
C3059       C  0.64875910  0.63467861  0.79131424    -0.08700
C3060       C  0.61648741  0.63771082  0.79744794    -0.06100
C3061       C  0.59850168  0.62247506  0.81587833    -0.00100
C3062       C  0.61143467  0.60085627  0.82809287    -0.08600
C3063       C  0.58843733  0.57570099  0.84606037     0.61800
H3064       H  0.65816034  0.58822208  0.83309494     0.12500
H3065       H  0.60542287  0.65259538  0.78765265     0.12500
C3066       C  0.66299385  0.64997514  0.77049947     0.62000
F3067       F  0.59943928  0.54827715  0.85163321    -0.23100
F3068       F  0.54854986  0.55544161  0.84204837    -0.20500
F3069       F  0.59518675  0.59874321  0.86161409    -0.20100
F3070       F  0.69519937  0.64734581  0.76547317    -0.20200
F3071       F  0.67274283  0.68877377  0.76806916    -0.20500
F3072       F  0.63294314  0.62865254  0.75772813    -0.23200
C3073       C  0.53826550  0.62989076  0.90171159    -0.06000
C3074       C  0.49969297  0.59969179  0.90591470    -0.00100
C3075       C  0.47025253  0.58978310  0.89148917    -0.08700
C3076       C  0.48138450  0.60723371  0.87253761    -0.06100
C3077       C  0.52094930  0.63345807  0.86759725    -0.00100
C3078       C  0.54954478  0.64726644  0.88262592    -0.08600
C3079       C  0.59229331  0.67885460  0.87925233     0.61800
H3080       H  0.56045978  0.63772630  0.91297910     0.12500
H3081       H  0.45975270  0.59679611  0.86098028     0.12500
C3082       C  0.91919626  0.55492000  0.89299826     0.62000
F3083       F  0.60208896  0.70797124  0.89202960    -0.23100
F3084       F  0.59983586  0.69623435  0.86048123    -0.20500
F3085       F  0.61627190  0.66288591  0.88289573    -0.20100
F3086       F  0.90618774  0.54563926  0.91223470    -0.20200
F3087       F  0.91374003  0.52162635  0.88472691    -0.20500
F3088       F  0.89638595  0.56793765  0.88303969    -0.23200
C3089       C  0.85291091  0.73153265  0.83431071    -0.06000
C3090       C  0.88600687  0.74552483  0.82202464    -0.00100
C3091       C  0.88084286  0.72935979  0.80335534    -0.08700
C3092       C  0.84302377  0.70012397  0.79820021    -0.06100
C3093       C  0.81083956  0.68516030  0.81102007    -0.00100
C3094       C  0.81575262  0.70095773  0.82956269    -0.08600
C3095       C  0.78406644  0.68674202  0.84538419     0.61800
H3096       H  0.85592276  0.74405958  0.84817553     0.12500
H3097       H  0.83840506  0.68699712  0.78429674     0.12500
C3098       C  0.91433215  0.74102408  0.78889659     0.62000
F3099       F  0.79740230  0.67688821  0.86250922    -0.23100
F3100       F  0.74887062  0.65449436  0.84083888    -0.20500
F3101       F  0.77690012  0.71667331  0.84885157    -0.20100
F3102       F  0.90211643  0.71827020  0.77284344    -0.20200
F3103       F  0.94364371  0.73622336  0.79794307    -0.20500
F3104       F  0.92919450  0.77942681  0.78188855    -0.23200
C3105       C  0.00029962  0.86684646  0.87870451    -0.06000
C3106       C  0.96711474  0.83014507  0.87538711    -0.00100
C3107       C  0.93992935  0.80997070  0.89121331    -0.08700
C3108       C  0.94386962  0.83009372  0.90814151    -0.06100
C3109       C  0.97487503  0.86831797  0.91019260    -0.00100
C3110       C  0.00527688  0.88569524  0.89598418    -0.08600
C3111       C  0.53505351  0.90402627  0.90553801     0.61800
H3112       H  0.51685872  0.86454391  0.87233475     0.12500
H3113       H  0.92136585  0.81679818  0.91948907     0.12500
C3114       C  0.90623213  0.76822001  0.89062349     0.62000
F3115       F  0.56495874  0.90549827  0.89455145    -0.23100
F3116       F  0.53900713  0.89334330  0.92474834    -0.20500
F3117       F  0.53960630  0.94100551  0.90465651    -0.20100
F3118       F  0.91902163  0.74479158  0.88317229    -0.20200
F3119       F  0.87640302  0.76756766  0.87929495    -0.20500
F3120       F  0.89084390  0.75239889  0.90915349    -0.23200
C3121       C  0.65057777  0.51727250  0.82155354    -0.06000
C3122       C  0.66316394  0.54145931  0.80412789    -0.00100
C3123       C  0.64205456  0.52654135  0.78666594    -0.08700
C3124       C  0.60950928  0.48857598  0.78738408    -0.06100
C3125       C  0.59851903  0.96085805  0.80368074    -0.00100
C3126       C  0.61773186  0.97524464  0.82159857    -0.08600
C3127       C  0.61046932  0.94841181  0.83982293     0.61800
H3128       H  0.66674378  0.52898423  0.83480019     0.12500
H3129       H  0.59344332  0.47753279  0.77397368     0.12500
C3130       C  0.65340981  0.54717230  0.76645684     0.62000
F3131       F  0.63337476  0.96853715  0.85535038    -0.23100
F3132       F  0.61970375  0.92009501  0.83584934    -0.20500
F3133       F  0.57151752  0.93072454  0.84570136    -0.20100
F3134       F  0.68890582  0.58146557  0.76591109    -0.20200
F3135       F  0.62432794  0.55493252  0.75980581    -0.20500
F3136       F  0.65643857  0.52300341  0.75373579    -0.23200
C3137       C  0.55523609  0.87818296  0.74378100    -0.06000
C3138       C  0.55259361  0.85409945  0.76022289    -0.00100
C3139       C  0.55623943  0.82079348  0.75808473    -0.08700
C3140       C  0.56157242  0.81227406  0.73911436    -0.06100
C3141       C  0.56481717  0.83678609  0.72246705    -0.00100
C3142       C  0.56200266  0.87074133  0.72493800    -0.08600
C3143       C  0.56795329  0.90038672  0.70817599     0.61800
H3144       H  0.55266600  0.90367203  0.74596917     0.12500
H3145       H  0.56396091  0.78659356  0.73723071     0.12500
C3146       C  0.55687695  0.79588935  0.77580202     0.62000
F3147       F  0.56831657  0.93303480  0.71454867    -0.23100
F3148       F  0.53758704  0.88372596  0.69494087    -0.20500
F3149       F  0.60374003  0.91298128  0.69899821    -0.20100
F3150       F  0.52071723  0.77738543  0.78522903    -0.20200
F3151       F  0.58561978  0.81933835  0.78866470    -0.20500
F3152       F  0.56504726  0.76743401  0.77064065    -0.23200
C3153       C  0.75257059  0.50045185  0.83416661    -0.06000
C3154       C  0.74981470  0.97830572  0.81770452    -0.00100
C3155       C  0.73708138  0.98575705  0.79897897    -0.08700
C3156       C  0.73020584  0.51615445  0.79745284    -0.06100
C3157       C  0.73660092  0.54132765  0.81232179    -0.00100
C3158       C  0.74609931  0.53214855  0.83131012    -0.08600
C3159       C  0.74931369  0.55391898  0.84934740     0.61800
H3160       H  0.76048892  0.49453842  0.84873058     0.12500
H3161       H  0.72111402  0.52271181  0.78334749     0.12500
C3162       C  0.73307906  0.96281477  0.78131597     0.62000
F3163       F  0.72252333  0.52799188  0.86332910    -0.23100
F3164       F  0.74167294  0.58411444  0.84575144    -0.20500
F3165       F  0.78682028  0.56895068  0.85693790    -0.20100
F3166       F  0.70605610  0.92367552  0.78529142    -0.20200
F3167       F  0.76931732  0.96751683  0.77651243    -0.20500
F3168       F  0.71976195  0.97540960  0.76510619    -0.23200
C3169       C  0.85097370  0.92466311  0.86084976    -0.06000
C3170       C  0.81606160  0.92610630  0.86214599    -0.00100
C3171       C  0.80388290  0.93091816  0.88057583    -0.08700
C3172       C  0.82770308  0.93519633  0.89690543    -0.06100
C3173       C  0.86317461  0.93472502  0.89568775    -0.00100
C3174       C  0.87520566  0.92933656  0.87722198    -0.08600
C3175       C  0.91293961  0.92810852  0.87453612     0.61800
H3176       H  0.85975537  0.92096896  0.84663060     0.12500
H3177       H  0.81610185  0.44752679  0.91198260     0.12500
C3178       C  0.75935934  0.43167650  0.88623718     0.62000
F3179       F  0.91646804  0.91887799  0.85579455    -0.23100
F3180       F  0.91328215  0.90003421  0.88753119    -0.20500
F3181       F  0.94533454  0.96427628  0.87765218    -0.20100
F3182       F  0.73026614  0.41237589  0.87271290    -0.20200
F3183       F  0.77198338  0.96789771  0.87605613    -0.20500
F3184       F  0.74313909  0.41524181  0.90455785    -0.23200
C3185       C  0.77078012  0.75639964  0.77985175    -0.06000
C3186       C  0.75458161  0.76979411  0.79334552    -0.00100
C3187       C  0.73190582  0.74372659  0.80923621    -0.08700
C3188       C  0.72726425  0.70576187  0.81115699    -0.06100
C3189       C  0.74342684  0.69230640  0.79754128    -0.00100
C3190       C  0.76496661  0.71824913  0.78123053    -0.08600
C3191       C  0.78098312  0.70760122  0.76408010     0.61800
H3192       H  0.78796864  0.77601444  0.76765818     0.12500
H3193       H  0.71105628  0.68625322  0.82354636     0.12500
C3194       C  0.71210835  0.75544552  0.82400773     0.62000
F3195       F  0.76371670  0.71217144  0.74699418    -0.23100
F3196       F  0.77367485  0.66968341  0.76559578    -0.20500
F3197       F  0.82124428  0.73262546  0.76242840    -0.20100
F3198       F  0.69011703  0.76983415  0.81442886    -0.20200
F3199       F  0.74045479  0.78382424  0.83528790    -0.20500
F3200       F  0.68691865  0.72407652  0.83643307    -0.23200
C3201       C  0.73762520  0.88971995  0.74066973    -0.06000
C3202       C  0.75745818  0.86856435  0.74427767    -0.00100
C3203       C  0.77094191  0.85759558  0.72807560    -0.08700
C3204       C  0.75856499  0.86255501  0.70918321    -0.06100
C3205       C  0.73429045  0.87886966  0.70609647    -0.00100
C3206       C  0.72639861  0.89562541  0.72167796    -0.08600
C3207       C  0.70085741  0.91423391  0.71896489     0.61800
H3208       H  0.72819779  0.89922713  0.75288614     0.12500
H3209       H  0.76417243  0.84970970  0.69702576     0.12500
C3210       C  0.79548235  0.83783605  0.73046089     0.62000
F3211       F  0.66208266  0.88644542  0.72319322    -0.23100
F3212       F  0.70348392  0.92979986  0.69999075    -0.20500
F3213       F  0.71282161  0.94433088  0.73132646    -0.20100
F3214       F  0.77114697  0.79848904  0.73541587    -0.20200
F3215       F  0.82357994  0.85471699  0.74478303    -0.20500
F3216       F  0.81510286  0.84141130  0.71323198    -0.23200
C3217       C  0.93287004  0.54149727  0.48335104    -0.06000
C3218       C  0.95026593  0.52750440  0.47091864    -0.03100
C3219       C  0.96877821  0.54976053  0.45330923    -0.08700
C3220       C  0.97207830  0.58659895  0.44983598    -0.06100
C3221       C  0.95509634  0.60079708  0.46242750    -0.00100
C3222       C  0.93383136  0.57717375  0.47920564    -0.08600
C3223       C  0.40698610  0.58527023  0.49327101     0.61800
H3224       H  0.91897982  0.52447155  0.49672272     0.12500
H3225       H  0.98727799  0.60411253  0.43668895     0.12500
C3226       C  0.98365312  0.53586681  0.43706966     0.62000
F3227       F  0.88679551  0.55764414  0.50548748    -0.23100
F3228       F  0.88729027  0.59857796  0.48129789    -0.20500
F3229       F  0.43106659  0.61739301  0.50373575    -0.20100
F3230       F  0.98053560  0.00204444  0.44225382    -0.20200
F3231       F  0.02348898  0.56130613  0.43398986    -0.20500
F3232       F  0.96414266  0.53600408  0.41997420    -0.23200
C3233       C  0.95194892  0.86335868  0.47182856    -0.06000
C3234       C  0.96030646  0.88557381  0.48822856    -0.00100
C3235       C  0.97313134  0.87380424  0.50556021    -0.08700
C3236       C  0.97844919  0.84123218  0.50542195    -0.06100
C3237       C  0.96882188  0.81787378  0.48918332    -0.00100
C3238       C  0.95442666  0.82912072  0.47214157    -0.08600
C3239       C  0.94150526  0.80562041  0.45423196     0.61800
H3240       H  0.94343398  0.87338375  0.45852271     0.12500
H3241       H  0.98921251  0.83339381  0.51868075     0.12500
C3242       C  0.46637771  0.88734350  0.52448046     0.62000
F3243       F  0.91255529  0.76771085  0.45944516    -0.23100
F3244       F  0.97387057  0.80644051  0.44632446    -0.20500
F3245       F  0.92608423  0.82046577  0.43995343    -0.20100
F3246       F  0.46386228  0.92086462  0.52300215    -0.20200
F3247       F  0.50348985  0.89674561  0.53109326    -0.20500
F3248       F  0.43895554  0.86170310  0.53831782    -0.23200
C3249       C  0.96006526  0.72564503  0.54822625    -0.06000
C3250       C  0.98298822  0.72292215  0.53363220    -0.00100
C3251       C  0.01044651  0.71054276  0.53895329    -0.08700
C3252       C  0.51036273  0.70739033  0.55904378    -0.06100
C3253       C  0.49186991  0.71478212  0.57407382    -0.00100
C3254       C  0.96671511  0.72075967  0.56819873    -0.08600
C3255       C  0.94500959  0.72881730  0.58361927     0.61800
H3256       H  0.93866491  0.73428445  0.54386992     0.12500
H3257       H  0.53581286  0.70449535  0.56280630     0.12500
C3258       C  0.03792615  0.70922476  0.52407642     0.62000
F3259       F  0.91686687  0.73660234  0.57541986    -0.23100
F3260       F  0.45963670  0.75690876  0.59549383    -0.20500
F3261       F  0.92629490  0.69650366  0.59663247    -0.20100
F3262       F  0.54303777  0.74060972  0.51183905    -0.20200
F3263       F  0.01662005  0.68031629  0.51129932    -0.20500
F3264       F  0.55504763  0.70055994  0.53160520    -0.23200
C3265       C  0.83199234  0.81203697  0.48381561    -0.06000
C3266       C  0.82064545  0.80849938  0.46414795    -0.00100
C3267       C  0.84242011  0.84024889  0.45038186    -0.08700
C3268       C  0.87385586  0.87493923  0.45713990    -0.06100
C3269       C  0.88444659  0.87927231  0.47698583    -0.00100
C3270       C  0.86322291  0.84676491  0.49061673    -0.08600
C3271       C  0.87174509  0.84600117  0.51226945     0.61800
H3272       H  0.81585118  0.78715642  0.49414378     0.12500
H3273       H  0.89152644  0.89890246  0.44674773     0.12500
C3274       C  0.83257672  0.83809153  0.42871972     0.62000
F3275       F  0.83705868  0.83063745  0.52290809    -0.23100
F3276       F  0.89714558  0.88253452  0.51864358    -0.20500
F3277       F  0.88765115  0.82204749  0.51612510    -0.20100
F3278       F  0.79360937  0.82813813  0.42624377    -0.20200
F3279       F  0.83894014  0.81048808  0.42077243    -0.20500
F3280       F  0.85576282  0.87346717  0.41834865    -0.23200
C3281       C  0.55853070  0.59475271  0.50019262    -0.06000
C3282       C  0.58972350  0.60894097  0.48650396    -0.00100
C3283       C  0.58778171  0.58338642  0.47220467    -0.08700
C3284       C  0.55325703  0.54670588  0.47117540    -0.06100
C3285       C  0.52302744  0.53266677  0.48520820    -0.00100
C3286       C  0.52670318  0.55650481  0.50062785    -0.08600
C3287       C  0.49847277  0.04074904  0.51613510     0.61800
H3288       H  0.55954333  0.61304986  0.51154537     0.12500
H3289       H  0.54998075  0.52802898  0.45957622     0.12500
C3290       C  0.62205780  0.59287321  0.45875546     0.62000
F3291       F  0.48248290  0.06480572  0.51701971    -0.23100
F3292       F  0.52011096  0.04460875  0.53297128    -0.20500
F3293       F  0.46828967  0.00240128  0.51611734    -0.20100
F3294       F  0.65519173  0.60167717  0.46980775    -0.20200
F3295       F  0.62943707  0.62402514  0.44574084    -0.20500
F3296       F  0.61447595  0.56152294  0.44794031    -0.23200
C3297       C  0.64679842  0.71678428  0.56247024    -0.06000
C3298       C  0.65120354  0.75434875  0.56146280    -0.00100
C3299       C  0.66018278  0.77622150  0.54315826    -0.08700
C3300       C  0.66274117  0.75872927  0.52639120    -0.06100
C3301       C  0.65658263  0.72057995  0.52745823    -0.00100
C3302       C  0.64987298  0.69962527  0.54585016    -0.08600
C3303       C  0.64751488  0.65998941  0.54818266     0.61800
H3304       H  0.64001425  0.70032058  0.57648231     0.12500
H3305       H  0.66837771  0.77428293  0.51215668     0.12500
C3306       C  0.66741754  0.81773952  0.54119248     0.62000
F3307       F  0.64840166  0.64863621  0.56766899    -0.23100
F3308       F  0.67928581  0.66184124  0.53878773    -0.20500
F3309       F  0.61291212  0.63152273  0.54035743    -0.20100
F3310       F  0.69497131  0.84022140  0.55475432    -0.20200
F3311       F  0.63259692  0.81753569  0.54418217    -0.20500
F3312       F  0.68157869  0.83522133  0.52275365    -0.23200
C3313       C  0.59223586  0.96859172  0.48489670    -0.06000
C3314       C  0.59339031  0.95427731  0.46679731    -0.00100
C3315       C  0.55916559  0.93879599  0.45498583    -0.08700
C3316       C  0.52643224  0.94088870  0.46114993    -0.06100
C3317       C  0.52512137  0.95530730  0.47917581    -0.00100
C3318       C  0.55880712  0.96927721  0.49141767    -0.08600
C3319       C  0.56512843  0.49309647  0.51236775     0.61800
H3320       H  0.61824372  0.98032774  0.49400048     0.12500
H3321       H  0.00638023  0.93708394  0.45464862     0.12500
C3322       C  0.55611001  0.91905634  0.43616866     0.62000
F3323       F  0.58105971  0.47745993  0.52584780    -0.23100
F3324       F  0.52969401  0.48587622  0.51979371    -0.20500
F3325       F  0.59037617  0.53308107  0.51030441    -0.20100
F3326       F  0.56981366  0.89303817  0.43915679    -0.20200
F3327       F  0.57777576  0.94682069  0.42141804    -0.20500
F3328       F  0.02487174  0.90389429  0.43390121    -0.23200
C3329       C  0.82247752  0.46366515  0.47017807    -0.06000
C3330       C  0.80785063  0.95010547  0.48750562    -0.00100
C3331       C  0.82242539  0.93219854  0.50129476    -0.08700
C3332       C  0.85827256  0.93475309  0.49740644    -0.06100
C3333       C  0.87690544  0.94835653  0.47917008    -0.00100
C3334       C  0.85504722  0.46001852  0.46506858    -0.08600
C3335       C  0.86437970  0.46257649  0.44348880     0.61800
H3336       H  0.80660106  0.46958789  0.45855045     0.12500
H3337       H  0.87204995  0.92589857  0.50892077     0.12500
C3338       C  0.80167642  0.90988757  0.52018054     0.62000
F3339       F  0.83378959  0.43100015  0.43481354    -0.23100
F3340       F  0.89868561  0.46227347  0.44010004    -0.20500
F3341       F  0.86814657  0.49670780  0.43464420    -0.20100
F3342       F  0.76135821  0.89406909  0.51907313    -0.20200
F3343       F  0.81662542  0.93450138  0.53535742    -0.20500
F3344       F  0.80826771  0.87897029  0.52424011    -0.23200
C3345       C  0.75653409  0.96109096  0.55143579    -0.06000
C3346       C  0.73002978  0.96378412  0.53793761    -0.00100
C3347       C  0.69370222  0.95794879  0.54530987    -0.08700
C3348       C  0.68290599  0.94301480  0.56477679    -0.06100
C3349       C  0.70628774  0.93292776  0.57681710    -0.00100
C3350       C  0.74472266  0.94408046  0.57054524    -0.08600
C3351       C  0.77177114  0.93508308  0.58326517     0.61800
H3352       H  0.78572699  0.96941452  0.54645856     0.12500
H3353       H  0.65397745  0.93521344  0.57017236     0.12500
C3354       C  0.66456444  0.96423669  0.53282816     0.62000
F3355       F  0.80755726  0.94738783  0.57415292    -0.23100
F3356       F  0.75414013  0.89517091  0.58748878    -0.20500
F3357       F  0.77921660  0.95394138  0.60048209    -0.20100
F3358       F  0.64602505  0.93455084  0.52010431    -0.20200
F3359       F  0.68373108  0.00014943  0.52245252    -0.20500
F3360       F  0.63571369  0.96396113  0.54418116    -0.23200
C3361       C  0.92306808  0.71075178  0.38252370    -0.06000
C3362       C  0.92081787  0.68192173  0.37090849    -0.00100
C3363       C  0.93733588  0.65893819  0.37774055    -0.08700
C3364       C  0.95073485  0.66183076  0.39705973    -0.06100
C3365       C  0.94913826  0.68764611  0.40980665    -0.00100
C3366       C  0.93754631  0.71451903  0.40182867    -0.08600
C3367       C  0.93972651  0.74659338  0.41343454     0.61800
H3368       H  0.91047750  0.72827321  0.37688758     0.12500
H3369       H  0.96118242  0.64228123  0.40238252     0.12500
C3370       C  0.93788831  0.62844621  0.36565070     0.62000
F3371       F  0.92863160  0.77024228  0.40261695    -0.23100
F3372       F  0.97827115  0.76973523  0.41915767    -0.20500
F3373       F  0.91496439  0.73046980  0.42952515    -0.20100
F3374       F  0.93382514  0.63510898  0.34587065    -0.20200
F3375       F  0.90755808  0.59183545  0.37182846    -0.20500
F3376       F  0.97333659  0.62912585  0.36808196    -0.23200
C3377       C  0.72436982  0.68703059  0.40872370    -0.06000
C3378       C  0.75414541  0.69646074  0.42259836    -0.00100
C3379       C  0.78329790  0.68604521  0.41999719    -0.08700
C3380       C  0.78294669  0.66840952  0.40277728    -0.06100
C3381       C  0.75497169  0.66176587  0.38812043    -0.00100
C3382       C  0.72437298  0.67014936  0.39131263    -0.08600
C3383       C  0.69183283  0.66158410  0.37653685     0.61800
H3384       H  0.70196916  0.69465764  0.41125413     0.12500
H3385       H  0.80590046  0.66158540  0.40017948     0.12500
C3386       C  0.81470922  0.69363113  0.43524546     0.62000
F3387       F  0.66094712  0.66367435  0.38456304    -0.23100
F3388       F  0.67684459  0.62431073  0.37016809    -0.20500
F3389       F  0.70647399  0.68862643  0.36072023    -0.20100
F3390       F  0.79740558  0.67928943  0.45354005    -0.20200
F3391       F  0.84071252  0.73336147  0.43557998    -0.20500
F3392       F  0.83595510  0.67557108  0.43125152    -0.23200
C3393       C  0.70231812  0.02728627  0.38638370    -0.06000
C3394       C  0.70425879  0.50291406  0.37422728    -0.00100
C3395       C  0.70321031  0.47013848  0.38427276    -0.08700
C3396       C  0.69618106  0.46447579  0.40462709    -0.06100
C3397       C  0.68930126  0.98220282  0.41477382    -0.00100
C3398       C  0.69311093  0.01762437  0.40640296    -0.08600
C3399       C  0.68841570  0.04570261  0.41866437     0.61800
H3400       H  0.70543738  0.05433732  0.37978192     0.12500
H3401       H  0.69517247  0.43951027  0.41267384     0.12500
C3402       C  0.70764057  0.44059479  0.37324311     0.62000
F3403       F  0.70274068  0.08208907  0.40898604    -0.23100
F3404       F  0.70894369  0.05091237  0.43599830    -0.20500
F3405       F  0.64898165  0.03084396  0.42279816    -0.20100
F3406       F  0.74507768  0.45771777  0.36522692    -0.20200
F3407       F  0.68025011  0.42746355  0.35837345    -0.20500
F3408       F  0.70148566  0.40857027  0.38531614    -0.23200
C3409       C  0.77052674  0.81941969  0.12880686    -0.06000
C3410       C  0.75360742  0.80204245  0.14722866    -0.00100
C3411       C  0.76939027  0.78132335  0.15832470    -0.08700
C3412       C  0.80003043  0.77793388  0.15018227    -0.06100
C3413       C  0.81719751  0.79575992  0.13187414    -0.00100
C3414       C  0.80259489  0.81780647  0.12110821    -0.08600
C3415       C  0.82047424  0.84023545  0.10169979     0.61800
H3416       H  0.75756037  0.83384586  0.12011472     0.12500
H3417       H  0.81102700  0.76120385  0.15852695     0.12500
C3418       C  0.75618270  0.76220094  0.17870374     0.62000
F3419       F  0.80526675  0.86401650  0.09558092    -0.23100
F3420       F  0.81245192  0.81430556  0.08735140    -0.20500
F3421       F  0.86076672  0.86406288  0.10352157    -0.20100
F3422       F  0.73998747  0.72219611  0.17809756    -0.20200
F3423       F  0.72908795  0.76964239  0.18665283    -0.20500
F3424       F  0.78834828  0.77600126  0.19099693    -0.23200
C3425       C  0.86980761  0.79133619  0.06559740    -0.06000
C3426       C  0.90156181  0.80040964  0.07842843    -0.00100
C3427       C  0.94042208  0.82010955  0.07040955    -0.08700
C3428       C  0.94612732  0.83384570  0.05063782    -0.06100
C3429       C  0.91470279  0.82916847  0.03884745    -0.00100
C3430       C  0.87576279  0.80612996  0.04598671    -0.08600
C3431       C  0.84090993  0.79861309  0.03309035     0.61800
H3432       H  0.84006259  0.77447106  0.07136660     0.12500
H3433       H  0.97567984  0.85164781  0.04465924     0.12500
C3434       C  0.97594223  0.82773029  0.08248108     0.62000
F3435       F  0.80534487  0.77419336  0.04262311    -0.23100
F3436       F  0.84219877  0.78110887  0.01650273    -0.20500
F3437       F  0.84217106  0.83341862  0.02756636    -0.20100
F3438       F  0.97101319  0.79209383  0.08954677    -0.20200
F3439       F  0.97965211  0.85068670  0.09769294    -0.20500
F3440       F  0.01063438  0.84691925  0.07163180    -0.23200
C3441       C  0.55481360  0.80129371  0.17409071    -0.06000
C3442       C  0.53235918  0.79653517  0.15699770    -0.00100
C3443       C  0.55042387  0.79988578  0.13865520    -0.08700
C3444       C  0.58862218  0.80548760  0.13827901    -0.06100
C3445       C  0.60992659  0.80859993  0.15536301    -0.00100
C3446       C  0.59316086  0.80733122  0.17368189    -0.08600
C3447       C  0.61324795  0.81125876  0.19333823     0.61800
H3448       H  0.54235182  0.80005799  0.18825225     0.12500
H3449       H  0.60205868  0.80632962  0.12450987     0.12500
C3450       C  0.53059739  0.79874886  0.11942817     0.62000
F3451       F  0.61517191  0.84245941  0.20235569    -0.23100
F3452       F  0.65089211  0.81738777  0.19192452    -0.20500
F3453       F  0.59133889  0.77755842  0.20512179    -0.20100
F3454       F  0.52290783  0.82921173  0.11829317    -0.20200
F3455       F  0.49626840  0.76308495  0.11831282    -0.20500
F3456       F  0.55407576  0.80369052  0.10348471    -0.23200
C3457       C  0.91085208  0.71055930  0.23221288    -0.06000
C3458       C  0.89139096  0.72787658  0.24024637    -0.00100
C3459       C  0.88748119  0.75714680  0.22914467    -0.08700
C3460       C  0.90251384  0.76739558  0.20986824    -0.06100
C3461       C  0.92141625  0.74946628  0.20164937    -0.00100
C3462       C  0.92556212  0.72040358  0.21298060    -0.08600
C3463       C  0.94508674  0.69934424  0.20505045     0.61800
H3464       H  0.91286775  0.68775015  0.24090867     0.12500
H3465       H  0.89976729  0.78965594  0.20108051     0.12500
C3466       C  0.86855220  0.77809467  0.23786226     0.62000
F3467       F  0.93494623  0.66482129  0.21592108    -0.23100
F3468       F  0.98545262  0.72339329  0.20586245    -0.20500
F3469       F  0.93373723  0.68986217  0.18596840    -0.20100
F3470       F  0.88584605  0.79194764  0.25563638    -0.20200
F3471       F  0.82866563  0.75275043  0.24073901    -0.20500
F3472       F  0.87331793  0.80963609  0.22577672    -0.23200
C3473       C  0.76840235  0.90390048  0.13596949    -0.06000
C3474       C  0.75747513  0.87776045  0.15260073    -0.00100
C3475       C  0.78218882  0.88848720  0.16928094    -0.08700
C3476       C  0.81641794  0.92502394  0.16864953    -0.06100
C3477       C  0.82473129  0.95266845  0.15304953    -0.00100
C3478       C  0.80111353  0.94191172  0.13608328    -0.08600
C3479       C  0.80933321  0.97052344  0.11855992     0.61800
H3480       H  0.74991795  0.89477842  0.12316172     0.12500
H3481       H  0.83535756  0.93338946  0.18135150     0.12500
C3482       C  0.77333597  0.86469849  0.18868440     0.62000
F3483       F  0.78062177  0.95476508  0.10439428    -0.23100
F3484       F  0.84508992  0.98040439  0.11018045    -0.20500
F3485       F  0.81045979  0.00389175  0.12436360    -0.20100
F3486       F  0.79933692  0.85086200  0.19116366    -0.20200
F3487       F  0.73526953  0.83388433  0.19015952    -0.20500
F3488       F  0.77850210  0.88828115  0.20386585    -0.23200
C3489       C  0.83954627  0.58568049  0.19045508    -0.06000
C3490       C  0.86346758  0.56890152  0.19045247    -0.00100
C3491       C  0.87986432  0.56353321  0.20809853    -0.08700
C3492       C  0.86803594  0.57104446  0.22575148    -0.06100
C3493       C  0.84196138  0.58580442  0.22618755    -0.00100
C3494       C  0.82927829  0.59551777  0.20792475    -0.08600
C3495       C  0.80497909  0.61586180  0.20635423     0.61800
H3496       H  0.82837956  0.59037041  0.17652484     0.12500
H3497       H  0.87933134  0.56533665  0.23938583     0.12500
C3498       C  0.89289531  0.01550823  0.21822517     0.62000
F3499       F  0.79886777  0.62436098  0.18708973    -0.23100
F3500       F  0.82453968  0.65100743  0.21527481    -0.20500
F3501       F  0.76838478  0.59210680  0.21502416    -0.20100
F3502       F  0.92914059  0.03154880  0.20895990    -0.20200
F3503       F  0.86706703  0.98041442  0.21033580    -0.20500
F3504       F  0.89779617  0.00781811  0.23780351    -0.23200
C3505       C  0.56413984  0.70154199  0.11861574    -0.06000
C3506       C  0.53362028  0.67841914  0.13223135    -0.00100
C3507       C  0.54028688  0.68727610  0.15233056    -0.08700
C3508       C  0.57739754  0.71784619  0.15770725    -0.06100
C3509       C  0.60804023  0.73902810  0.14409829    -0.00100
C3510       C  0.60115959  0.73129896  0.12403465    -0.08600
C3511       C  0.63084659  0.75331502  0.10744503     0.61800
H3512       H  0.55917895  0.69698547  0.10318294     0.12500
H3513       H  0.58278033  0.72623782  0.17266983     0.12500
C3514       C  0.00443868  0.67482832  0.16556916     0.62000
F3515       F  0.61380378  0.76576385  0.09287440    -0.23100
F3516       F  0.64101188  0.72819749  0.09959949    -0.20500
F3517       F  0.66485589  0.78581655  0.11308656    -0.20100
F3518       F  0.99076878  0.63604260  0.17126493    -0.20200
F3519       F  0.97457314  0.67930920  0.15692602    -0.20500
F3520       F  0.01548057  0.69554721  0.18228306    -0.23200
C3521       C  0.98698665  0.59988811  0.04442246    -0.06000
C3522       C  0.95085711  0.56939792  0.03865607    -0.00100
C3523       C  0.91683372  0.55698900  0.05012885    -0.08700
C3524       C  0.92096170  0.57323575  0.06830835    -0.06100
C3525       C  0.95817491  0.60087889  0.07542743    -0.00100
C3526       C  0.99163562  0.61603675  0.06264770    -0.08600
C3527       C  0.53828361  0.61031489  0.08069395     0.61800
H3528       H  0.52526648  0.59056093  0.04315639     0.12500
H3529       H  0.89509676  0.56286780  0.07746953     0.12500
C3530       C  0.87628678  0.00267518  0.05360575     0.62000
F3531       F  0.56250848  0.59988395  0.07158930    -0.23100
F3532       F  0.52854009  0.59072422  0.09897378    -0.20500
F3533       F  0.03191772  0.68092274  0.07206507    -0.20100
F3534       F  0.87692757  0.97087653  0.06279942    -0.20200
F3535       F  0.86779687  0.99634028  0.03399707    -0.20500
F3536       F  0.84621323  0.00583301  0.06186210    -0.23200
C3537       C  0.68710318  0.71532339  0.13853186    -0.06000
C3538       C  0.67478388  0.72856712  0.15403420    -0.00100
C3539       C  0.65616462  0.70240094  0.17060206    -0.08700
C3540       C  0.64916290  0.66410670  0.17052361    -0.06100
C3541       C  0.66292889  0.65092162  0.15567824    -0.00100
C3542       C  0.68252798  0.67730876  0.13923468    -0.08600
C3543       C  0.69901464  0.66611513  0.12260311     0.61800
H3544       H  0.70077825  0.73531101  0.12588734     0.12500
H3545       H  0.63339811  0.64439107  0.18287186     0.12500
C3546       C  0.64540313  0.71309759  0.18959945     0.62000
F3547       F  0.71992597  0.69733313  0.10917525    -0.23100
F3548       F  0.66847519  0.63650154  0.11282266    -0.20500
F3549       F  0.72437958  0.65371206  0.12988468    -0.20100
F3550       F  0.60580999  0.68844924  0.19373246    -0.20200
F3551       F  0.65325407  0.75116466  0.18934463    -0.20500
F3552       F  0.66670874  0.70795970  0.20474830    -0.23200
C3553       C  0.64271339  0.55575787  0.23815975    -0.06000
C3554       C  0.66444712  0.53726935  0.24278336    -0.00100
C3555       C  0.67077829  0.51682286  0.22850804    -0.08700
C3556       C  0.66060108  0.52099024  0.20902573    -0.06100
C3557       C  0.64426098  0.54485758  0.20381715    -0.00100
C3558       C  0.63095073  0.55855027  0.21893987    -0.08600
C3559       C  0.60667995  0.57836507  0.21556209     0.61800
H3560       H  0.63761093  0.57089366  0.24939094     0.12500
H3561       H  0.66890765  0.50872066  0.19761827     0.12500
C3562       C  0.69058115  0.49302131  0.23380473     0.62000
F3563       F  0.57896257  0.56646177  0.23041913    -0.23100
F3564       F  0.58646460  0.56894917  0.19808847    -0.20500
F3565       F  0.63116985  0.61837158  0.21580688    -0.20100
F3566       F  0.67027003  0.46630905  0.24918906    -0.20200
F3567       F  0.72905318  0.51726178  0.23936605    -0.20500
F3568       F  0.69101203  0.47260976  0.21823612    -0.23200
C3569       C  0.67142030  0.88206419  0.12582559    -0.06000
C3570       C  0.68299272  0.88019625  0.14531734    -0.00100
C3571       C  0.68972068  0.91111294  0.15716804    -0.08700
C3572       C  0.68133224  0.94019016  0.14959081    -0.06100
C3573       C  0.66659982  0.94040743  0.13054948    -0.00100
C3574       C  0.66308048  0.91120199  0.11815154    -0.08600
C3575       C  0.65083280  0.91010195  0.09687660     0.61800
H3576       H  0.66778667  0.85920973  0.11666796     0.12500
H3577       H  0.68603782  0.96296710  0.15909670     0.12500
C3578       C  0.70641274  0.91623597  0.17761503     0.62000
F3579       F  0.65455196  0.88251644  0.08714290    -0.23100
F3580       F  0.67462693  0.94604773  0.08719322    -0.20500
F3581       F  0.61179396  0.90063676  0.09584053    -0.20100
F3582       F  0.71103731  0.88558665  0.18466946    -0.20200
F3583       F  0.68161749  0.91971979  0.19031320    -0.20500
F3584       F  0.74283887  0.95007900  0.17744634    -0.23200
C3585       C  0.55791348  0.00947078  0.06506819    -0.06000
C3586       C  0.56289514  0.99118289  0.04940669    -0.00100
C3587       C  0.58774973  0.97488026  0.05171204    -0.08700
C3588       C  0.60843158  0.97929015  0.06934171    -0.06100
C3589       C  0.60429829  0.99823723  0.08506069    -0.00100
C3590       C  0.57760959  0.01288654  0.08301664    -0.08600
C3591       C  0.55600905  0.51415099  0.10254588     0.61800
H3592       H  0.53827751  0.02121159  0.06306497     0.12500
H3593       H  0.62832400  0.96788853  0.07087125     0.12500
C3594       C  0.59148191  0.95170078  0.03588813     0.62000
F3595       F  0.52135465  0.51438002  0.09852282    -0.23100
F3596       F  0.58214227  0.54961146  0.11004595    -0.20500
F3597       F  0.55965697  0.00698225  0.11659007    -0.20100
F3598       F  0.61268694  0.97674324  0.02017933    -0.20200
F3599       F  0.55447011  0.92419250  0.02971321    -0.20500
F3600       F  0.61070601  0.93197610  0.04257460    -0.23200
loop_ 
_geom_bond_atom_site_label_1 
_geom_bond_atom_site_label_2 
_geom_bond_distance 
_geom_bond_site_symmetry_2 
_ccdc_geom_bond_type 
C1            N2   1.360       .  A
C1          N906   1.355       .  A
C1          C889   1.483       .  S
N2            C3   1.359       .  A
C3            N4   1.364       .  A
C3          C873   1.512       .  S
N4          C905   1.362       .  A
C5            N6   1.355       .  A
C5          N904   1.365   1_545  A
C5           C11   1.472       .  S
N6          C901   1.358   1_545  A
C7            N8   1.354       .  A
C7           N12   1.350       .  A
C7          C857   1.477       .  S
N8            C9   1.362       .  A
C9           N10   1.369       .  A
C9          C841   1.517       .  S
N10          C11   1.371       .  A
C11          N12   1.354       .  A
C13          N14   1.360       .  A
C13          N18   1.362       .  A
C13         C825   1.506       .  S
N14          C15   1.364       .  A
C15          N16   1.357       .  A
C15        C2606   1.508       .  S
N16          C17   1.357       .  A
C17          N18   1.358       .  A
C17          C21   1.471       .  S
C19          N20   1.358       .  A
C19         N924   1.353       .  A
C19         C790   1.477       .  S
N20          C21   1.363       .  A
C21         N922   1.363       .  A
N22          C23   1.361       .  A
N22         C921   1.365       .  A
C23          N24   1.359       .  A
C23         C777   1.483       .  S
N24         C919   1.353       .  A
C25          N26   1.349       .  A
C25          N30   1.359       .  A
C25         C761   1.479       .  S
N26          C27   1.354       .  A
C27          N28   1.352       .  A
C27        C2542   1.482       .  S
N28          C29   1.357       .  A
C29          N30   1.362       .  A
C29          C33   1.460       .  S
C31          N32   1.354       .  A
C31          N36   1.356       .  A
C31         C726   1.468       .  S
N32          C33   1.356       .  A
C33          N34   1.352       .  A
N34          C35   1.358       .  A
C35          N36   1.356       .  A
C35         C713   1.490       .  S
C37         C870   1.516       .  S
C37          C38   1.413       .  A
C37          C42   1.424       .  A
C38         C745   1.480       .  S
C38          C39   1.409       .  A
C39         C809   1.487       .  S
C39          C40   1.408       .  A
C40         C838   1.514       .  S
C40          C41   1.430       .  A
C41         C710   1.490       .  S
C41          C42   1.443       .  A
C42         C774   1.503       .  S
Zr43         O44   2.443       .  S
Zr43         O45   2.435       .  S
Zr43         O46   2.401       .  S
Zr43         O49   2.405       .  S
Zr43         O51   2.376       .  S
Zr43         O52   2.391       .  S
Zr43         O53   2.407       .  S
Zr43         O54   2.396       .  S
O44         H100   0.990       .  S
O44         H108   0.991       .  S
O45          C65   1.284       .  A
O46          C67   1.277       .  A
O47         Zr57   2.457       .  S
O47          C66   1.284       .  A
O48         Zr56   2.449       .  S
O48          C67   1.285       .  A
O49          C66   1.269       .  A
O50         Zr58   2.394       .  S
O50          C65   1.275       .  A
O51         Zr56   2.389       .  S
O51         Zr58   2.381       .  S
O52         Zr57   2.402       .  S
O52         Zr58   2.383       .  S
O52          H87   0.965       .  S
O53         Zr56   2.398       .  S
O53         Zr73   2.400       .  S
O53          H90   0.969       .  S
O54         Zr57   2.394       .  S
O54         Zr73   2.392       .  S
Zr55         O80   2.440       .  S
Zr55         O74   2.417       .  S
Zr55         O82   2.396       .  S
Zr55         O70   2.394       .  S
Zr55         O61   2.392       .  S
Zr55         O62   2.388       .  S
Zr55         O63   2.373       .  S
Zr55         O64   2.385       .  S
Zr56         O75   2.437       .  S
Zr56         O68   2.435       .  S
Zr56         O69   2.438       .  S
Zr56         O62   2.400       .  S
Zr56         O63   2.387       .  S
Zr57         O59   2.437   1_545  S
Zr57         O81   2.436       .  S
Zr57         O83   2.450       .  S
Zr57         O61   2.407       .  S
Zr57         O64   2.403       .  S
Zr58         O84   2.435       .  S
Zr58         O85   2.437       .  S
Zr58         O60   2.438       .  S
Zr58         O61   2.393       .  S
Zr58         O62   2.379       .  S
O59          H96   0.990       .  S
O60          H91   0.990       .  S
O60         H105   0.990       .  S
O62          H88   0.966       .  S
O63         Zr73   2.363       .  S
O64         Zr73   2.375       .  S
O64          H89   0.969       .  S
C65         C681   1.476       .  S
C66         C694   1.473       .  S
C67         C662   1.465       .  S
O68         H104   0.990       .  S
O69          C71   1.285       .  A
O70          C71   1.277       .  A
C71         C758   1.459       .  S
O72         Zr73   2.435       .  S
O72         H101   0.990       .  S
Zr73         O76   2.433       .  S
Zr73         O77   2.438       .  S
Zr73         O78   2.437       .  S
O74          C79   1.278       .  A
O75          H92   0.990       .  S
O75         H107   0.990       .  S
O76          H93   0.990       .  S
O77          H97   0.990   1_545  S
O77         H106   0.990   1_545  S
O78          C79   1.286       .  A
C79         C793   1.504       .  S
O80          H99   0.991       .  S
O80         H103   0.990       .  S
O81          H95   0.990       .  S
O81         H102   0.990       .  S
O82          C86   1.277       .  A
O83          C86   1.286       .  A
O84          H94   0.990       .  S
O85          H98   0.990       .  S
C86         C854   1.463       .  S
C109        N110   1.351       .  A
C109        N114   1.357       .  A
C109        C646   1.499       .  S
N110        C111   1.359       .  A
C111       N1012   1.365       .  A
C111        C119   1.474       .  S
N112       C1011   1.357       .  A
N112       C1013   1.361       .  A
C113        N114   1.357       .  A
C113       N1012   1.368       .  A
C113        C630   1.509       .  S
C115        N116   1.354       .  A
C115        N120   1.366       .  A
C115        C697   1.480       .  S
N116        C117   1.352       .  A
C117        N118   1.354       .  A
C117        C614   1.481       .  S
N118        C119   1.358       .  A
C119        N120   1.363       .  A
C121        N122   1.353       .  A
C121        N126   1.354       .  A
C121        C601   1.476       .  S
N122        C123   1.357       .  A
C123        N124   1.363       .  A
C123        C129   1.466       .  S
N124        C125   1.361       .  A
C125        N126   1.359       .  A
C125        C582   1.507       .  S
C127        N128   1.358       .  A
C127        N132   1.354       .  A
C127        C678   1.463       .  S
N128        C129   1.357       .  A
C129        N130   1.358       .  A
N130        C131   1.358       .  A
C131        N132   1.352       .  A
C131        C566   1.481       .  S
C133        N134   1.351       .  A
C133        N138   1.357       .  A
C133        C550   1.484       .  S
N134        C135   1.356       .  A
C135        N136   1.370       .  A
C135        C141   1.486       .  S
N136        C137   1.373       .  A
C137        N138   1.361       .  A
C137        C537   1.522       .  S
C139        N140   1.367       .  A
C139        N144   1.360       .  A
C139        C665   1.504       .  S
N140        C141   1.364       .  A
C141       N1942   1.363       .  A
N142        C143   1.354       .  A
N142       C1941   1.361       .  A
C143       N1944   1.352       .  A
C143       C2321   1.488       .  S
N144       C1943   1.353       .  A
C145       C1418   1.491       .  S
C145        C146   1.413       .  A
C145        C150   1.415       .  A
C146        C633   1.500       .  S
C146        C147   1.417       .  A
C147        C569   1.483       .  S
C147        C148   1.421       .  A
C148        C534   1.507       .  S
C148        C149   1.423       .  A
C149       C2417   1.494       .  S
C149        C150   1.420       .  A
C150       C3285   1.490       .  S
C151        N152   1.352       .  A
C151        N156   1.360       .  A
C151        C502   1.490       .  S
N152        C153   1.357       .  A
C153        N154   1.363       .  A
C153        C159   1.467       .  S
N154        C155   1.363       .  A
C155        N156   1.365       .  A
C155        C486   1.502       .  S
C157        N158   1.363       .  A
C157        N162   1.361       .  A
C157        C470   1.484       .  S
N158        C159   1.357       .  A
C159        N160   1.355       .  A
N160        C161   1.352       .  A
C161        N162   1.363       .  A
C161        C454   1.507       .  S
C163        N164   1.353       .  A
C163        N168   1.350       .  A
C163        C438   1.472       .  S
N164        C165   1.359       .  A
C165        N166   1.363       .  A
C165        C171   1.458   1_455  S
N166        C167   1.357       .  A
C167        N168   1.355       .  A
C167        C425   1.487       .  S
C169        N174   1.359       .  A
C169       N1970   1.358       .  A
C169        C406   1.504       .  S
N170        C171   1.352       .  A
N170       C1969   1.358       .  A
C171       N1972   1.354       .  A
N172        C173   1.363       .  A
N172       C1971   1.362       .  A
C173        N174   1.365       .  A
C173        C390   1.514       .  S
C175        N176   1.362       .  A
C175        N180   1.359       .  A
C175        C377   1.484       .  S
N176        C177   1.361       .  A
C177        N178   1.356       .  A
C177        C361   1.489       .  S
N178        C179   1.351       .  A
C179        N180   1.358       .  A
C179       C1985   1.462   1_455  S
C181        N182   1.354       .  A
C181        N186   1.360       .  A
C181        C345   1.487       .  S
N182        C183   1.360       .  A
C183        N184   1.351       .  A
C183        C329   1.489       .  S
N184        C185   1.355       .  A
C185        N186   1.362       .  A
C185       C1979   1.463       .  S
C187        C489   1.511       .  S
C187        C188   1.434       .  A
C187        C192   1.419       .  A
C188        C358   1.490       .  S
C188        C189   1.434       .  A
C189        C422   1.503       .  S
C189        C190   1.414       .  A
C190        C457   1.497       .  S
C190        C191   1.405       .  A
C191        C326   1.483       .  S
C191        C192   1.410       .  A
C192        C393   1.496       .  S
Zr193      O1994   2.439       .  S
Zr193       O195   2.416       .  S
Zr193       O196   2.411       .  S
Zr193      O1099   2.413       .  S
Zr193       O201   2.376       .  S
Zr193       O202   2.378       .  S
Zr193       O203   2.392       .  S
Zr193      O2904   2.396       .  S
O194      Zr1993   2.439   1_455  S
O194        H250   0.990       .  S
O194        H258   0.990       .  S
O195        C215   1.278       .  A
O196        C217   1.281       .  A
O197       Zr207   2.454       .  S
O197       C2016   1.287       .  A
O198       Zr206   2.443       .  S
O198        C217   1.286       .  A
O199      Zr1093   2.398   1_545  S
O199       C2016   1.278       .  A
O200       Zr208   2.427       .  S
O200        C215   1.284       .  A
O201       Zr206   2.392       .  S
O201       Zr208   2.374       .  S
O202       Zr208   2.373       .  S
O202      Zr1107   2.396       .  S
O202       H1137   0.961       .  S
O203       Zr206   2.406       .  S
O203      Zr2023   2.392       .  S
O203        H240   0.964       .  S
O204      Zr2893   2.403   1_445  S
O204      Zr2007   2.406   1_455  S
O204      Zr1123   2.404   1_545  S
Zr205       O230   2.439       .  S
Zr205       O224   2.415       .  S
Zr205       O220   2.395       .  S
Zr205      O1132   2.388       .  S
Zr205       O211   2.388   1_554  S
Zr205       O212   2.391   1_554  S
Zr205       O213   2.368   1_554  S
Zr205       O214   2.379   1_554  S
Zr206       O225   2.437       .  S
Zr206       O218   2.435       .  S
Zr206       O219   2.451   1_556  S
Zr206       O212   2.400       .  S
Zr206       O213   2.386       .  S
Zr207       O231   2.435       .  S
Zr207      O2009   2.434       .  S
Zr207       O233   2.466   1_556  S
Zr207      O1102   2.394   1_545  S
Zr207      O2004   2.404       .  S
Zr207      O1111   2.396   1_545  S
Zr207      O1114   2.389       .  S
Zr208       O234   2.436       .  S
Zr208       O235   2.437       .  S
Zr208       O210   2.435       .  S
Zr208       O211   2.397       .  S
Zr208       O212   2.399       .  S
O209      Zr2007   2.438   1_455  S
O209        H246   0.990       .  S
O210        H241   0.990       .  S
O210        H255   0.990       .  S
O211      Zr1107   2.395       .  S
O212        H238   0.968       .  S
O213      Zr2023   2.375       .  S
O214      Zr1107   2.390       .  S
O214      Zr2023   2.368       .  S
O214       H2939   0.968   1_556  S
C215        C473   1.492       .  S
C216        C374   1.474       .  S
C216       O1997   1.289       .  A
C216       O1999   1.282       .  A
C217        C409   1.472       .  S
O218        H254   0.990       .  S
O219        C221   1.286       .  A
O220        C221   1.279       .  A
C221        C729   1.476       .  S
O222       Zr223   2.436       .  S
O222        H251   0.990       .  S
Zr223       O226   2.435       .  S
Zr223      O1127   2.439       .  S
Zr223       O228   2.428   1_556  S
Zr223      O2003   2.395       .  S
Zr223      O1104   2.398       .  S
Zr223      O2013   2.371   1_455  S
Zr223      O2014   2.376       .  S
O224       C2029   1.282       .  A
O225        H242   0.990       .  S
O225        H257   0.990       .  S
O226        H243   0.989       .  S
O227      Zr1123   2.438   1_545  S
O227        H247   0.990       .  S
O227        H256   0.990       .  S
O228        C229   1.281       .  A
C229        C886   1.487       .  S
C229       O2024   1.282       .  A
O230        H249   0.990       .  S
O230        H253   0.991       .  S
O231        H245   0.990       .  S
O231        H252   0.990       .  S
O232      Zr1105   2.388   1_545  S
O232        C236   1.276       .  A
O233        C236   1.290       .  A
O234        H244   0.990       .  S
O235        H248   0.990       .  S
C236        C822   1.472       .  S
H237       O1102   0.966   1_545  S
H239       O2914   0.965   1_454  S
Zr259       O260   2.441       .  S
Zr259       O261   2.425       .  S
Zr259       O262   2.403       .  S
Zr259       O265   2.396       .  S
Zr259       O267   2.379       .  S
Zr259       O268   2.379       .  S
Zr259       O269   2.392       .  S
Zr259       O270   2.392       .  S
O260        H316   0.990       .  S
O260        H324   0.990       .  S
O261        C281   1.284       .  A
O262        C283   1.278       .  A
O263       Zr273   2.471       .  S
O263        C282   1.292       .  A
O264       Zr272   2.453       .  S
O264        C283   1.287       .  A
O265        C282   1.277       .  A
O266       Zr274   2.413       .  S
O266        C281   1.278       .  A
O267       Zr272   2.400       .  S
O267       Zr274   2.382       .  S
O268       Zr273   2.384       .  S
O268       Zr274   2.367       .  S
O268        H303   0.965       .  S
O269       Zr272   2.401       .  S
O269       Zr289   2.388       .  S
O269        H306   0.965       .  S
O270       Zr273   2.399       .  S
O270       Zr289   2.394       .  S
Zr271       O296   2.442       .  S
Zr271       O290   2.425       .  S
Zr271       O298   2.400       .  S
Zr271       O286   2.396       .  S
Zr271       O277   2.398       .  S
Zr271       O278   2.393       .  S
Zr271       O279   2.377       .  S
Zr271       O280   2.378       .  S
Zr272       O291   2.434       .  S
Zr272       O284   2.435       .  S
Zr272       O285   2.465       .  S
Zr272       O278   2.402       .  S
Zr272       O279   2.398       .  S
Zr273       O275   2.434       .  S
Zr273       O297   2.437   1_455  S
Zr273       O299   2.467       .  S
Zr273       O277   2.402       .  S
Zr273       O280   2.394       .  S
Zr274       O300   2.437       .  S
Zr274       O301   2.436       .  S
Zr274       O276   2.436       .  S
Zr274       O277   2.396       .  S
Zr274       O278   2.384       .  S
O275        H312   0.990       .  S
O276        H307   0.990       .  S
O276        H321   0.990       .  S
O278        H304   0.967       .  S
O279       Zr289   2.381       .  S
O280       Zr289   2.377       .  S
O280        H305   0.966       .  S
C281        C441   1.486       .  S
C282        C342   1.474       .  S
C283        C505   1.469       .  S
O284        H320   0.990       .  S
O285        C287   1.289       .  A
O286        C287   1.280       .  A
C287        C649   1.487       .  S
O288       Zr289   2.440       .  S
O288        H317   0.989       .  S
Zr289       O292   2.435       .  S
Zr289       O293   2.437       .  S
Zr289       O294   2.407       .  S
O290        C295   1.281       .  A
O291        H308   0.989       .  S
O291        H323   0.990       .  S
O292        H309   0.990       .  S
O293        H313   0.990       .  S
O293        H322   0.990       .  S
O294        C295   1.280       .  A
C295        C598   1.472       .  S
O296        H315   0.991       .  S
O296        H319   0.990       .  S
O297        H318   0.990       .  S
O297       H2111   0.990       .  S
O298        C302   1.277       .  A
O299        C302   1.290       .  A
O300        H310   0.990       .  S
O301        H314   0.990       .  S
C302        C553   1.475   1_455  S
H311       O2097   0.990       .  S
C325        C326   1.402       .  A
C325        C330   1.410       .  A
C325        H332   1.083       .  S
C326        C327   1.418       .  A
C327        C328   1.390       .  A
C327        C334   1.518       .  S
C328        C329   1.400       .  A
C328        H333   1.084       .  S
C329        C330   1.428       .  A
C330        C331   1.519       .  S
C331        F335   1.383       .  S
C331        F336   1.383       .  S
C331        F337   1.385       .  S
C334        F338   1.384       .  S
C334        F339   1.383       .  S
C334        F340   1.369       .  S
C341        C342   1.398   1_655  A
C341       C2146   1.405       .  A
C341       H2148   1.084       .  S
C342        C343   1.415       .  A
C343        C344   1.409       .  A
C343        C350   1.516       .  S
C344       C2145   1.406   1_455  A
C344        H349   1.083       .  S
C345        C346   1.423       .  A
C345       C2144   1.408       .  A
C346       C2141   1.403       .  A
C346        C347   1.520       .  S
C347        F351   1.385       .  S
C347        F352   1.381       .  S
C347        F353   1.382       .  S
H348       C2141   1.084       .  S
C350        F354   1.382       .  S
C350        F355   1.383       .  S
C350        F356   1.385       .  S
C357        C358   1.406       .  A
C357        C362   1.403       .  A
C357        H364   1.082       .  S
C358        C359   1.419       .  A
C359        C360   1.402       .  A
C359        C366   1.516       .  S
C360        C361   1.408       .  A
C360        H365   1.084       .  S
C361        C362   1.420       .  A
C362        C363   1.521       .  S
C363        F367   1.386       .  S
C363        F368   1.384       .  S
C363        F369   1.379       .  S
C366        F370   1.373       .  S
C366        F371   1.383       .  S
C366        F372   1.384       .  S
C373        C374   1.402   1_455  A
C373        C378   1.408       .  A
C373        H380   1.084       .  S
C374        C375   1.415       .  A
C375        C376   1.404       .  A
C375       C2182   1.516       .  S
C376        C377   1.403   1_655  A
C376        H381   1.082       .  S
C377        C378   1.418       .  A
C378        C379   1.515       .  S
C379        F383   1.385       .  S
C379        F384   1.383       .  S
C379        F385   1.381       .  S
C382       C2175   1.516       .  S
C382        F386   1.384       .  S
C382        F387   1.380       .  S
C382        F388   1.384       .  S
C389        C390   1.410       .  A
C389        C394   1.401       .  A
C389        H396   1.074       .  S
C390        C391   1.428       .  A
C391        C392   1.414       .  A
C391        C398   1.518       .  S
C392        C393   1.404       .  A
C392        H397   1.081       .  S
C393        C394   1.415       .  A
C394        C395   1.523       .  S
C395        F399   1.383       .  S
C395        F400   1.376       .  S
C395        F401   1.384       .  S
C398        F402   1.384       .  S
C398        F403   1.382       .  S
C398        F404   1.383       .  S
C405        C406   1.410       .  A
C405        C410   1.400       .  A
C405       H2212   1.083       .  S
C406        C407   1.431       .  A
C407        C408   1.410       .  A
C407        C414   1.516       .  S
C408        C409   1.398       .  A
C408        H413   1.083       .  S
C409        C410   1.412       .  A
C410       C2211   1.518       .  S
C411       C2210   1.519   1_455  S
C411        F415   1.384       .  S
C411        F416   1.381       .  S
C411        F417   1.383       .  S
H412       C2205   1.084   1_455  S
C414        F418   1.382       .  S
C414        F419   1.384       .  S
C414        F420   1.385       .  S
C421        C422   1.408       .  A
C421       C1326   1.413   1_545  A
C421        H428   1.081       .  S
C422        C423   1.423       .  A
C423        C424   1.400   1_545  A
C423        C430   1.515       .  S
C424       C1325   1.402       .  A
C424        H429   1.085       .  S
C425        C426   1.420       .  A
C425       C1324   1.401       .  A
C426       C1321   1.415       .  A
C426        C427   1.519       .  S
C427        F431   1.385       .  S
C427        F432   1.383       .  S
C427        F433   1.384       .  S
C430        F434   1.368       .  S
C430        F435   1.383       .  S
C430        F436   1.384       .  S
C437        C438   1.400       .  A
C437        C442   1.402       .  A
C437        H444   1.084       .  S
C438        C439   1.412       .  A
C439        C440   1.405       .  A
C439        C446   1.518       .  S
C440        C441   1.409       .  A
C440        H445   1.083       .  S
C441        C442   1.424       .  A
C442        C443   1.522       .  S
C443        F447   1.385       .  S
C443        F448   1.382       .  S
C443        F449   1.383       .  S
C446        F450   1.379       .  S
C446        F451   1.383       .  S
C446        F452   1.385       .  S
C453        C458   1.403   1_565  A
C453       C1354   1.409       .  A
C453        H460   1.084       .  S
C454        C455   1.434       .  A
C454       C1353   1.405       .  A
C455       C1356   1.415       .  A
C455        C462   1.521       .  S
C456        C457   1.397       .  A
C456       C1355   1.411   1_545  A
C456        H461   1.080       .  S
C457        C458   1.417       .  A
C458        C459   1.518       .  S
C459        F463   1.384       .  S
C459        F464   1.378       .  S
C459        F465   1.383       .  S
C462        F466   1.384       .  S
C462        F467   1.384       .  S
C462        F468   1.383       .  S
C469        C470   1.403       .  A
C469        C474   1.408       .  A
C469        H476   1.083       .  S
C470        C471   1.417       .  A
C471        C472   1.404       .  A
C471       C1378   1.518       .  S
C472        C473   1.407       .  A
C472       H1377   1.083       .  S
C473        C474   1.426       .  A
C474        C475   1.522       .  S
C475        F479   1.385       .  S
C475        F480   1.382       .  S
C475        F481   1.383       .  S
H477       C1372   1.082       .  S
C478       C1371   1.519       .  S
C478        F482   1.384       .  S
C478        F484   1.384       .  S
C478       F1383   1.382       .  S
F483       C1378   1.380       .  S
C485        C486   1.400       .  A
C485        C490   1.401       .  A
C485        H492   1.081       .  S
C486        C487   1.424       .  A
C487        C488   1.419       .  A
C487        C494   1.518       .  S
C488        C489   1.410       .  A
C488        H493   1.081       .  S
C489        C490   1.426       .  A
C490        C491   1.520       .  S
C491        F495   1.383       .  S
C491        F496   1.376       .  S
C491        F497   1.383       .  S
C494        F498   1.383       .  S
C494        F499   1.383       .  S
C494        F500   1.385       .  S
C501        C502   1.408       .  A
C501        C506   1.406       .  A
C501        H508   1.083       .  S
C502        C503   1.420       .  A
C503        C504   1.408       .  A
C503        C510   1.514       .  S
C504        C505   1.401       .  A
C504        H509   1.084       .  S
C505        C506   1.410       .  A
C506        C507   1.515       .  S
C507        F511   1.382       .  S
C507        F512   1.383       .  S
C507        F513   1.385       .  S
C510        F514   1.381       .  S
C510        F515   1.385       .  S
C510        F516   1.384       .  S
C517        C518   1.402       .  A
C517        C522   1.406       .  A
C517        H524   1.080       .  S
C518       C1045   1.500   1_545  S
C518        C519   1.421       .  A
C519        C520   1.407       .  A
C519        C526   1.523       .  S
C520        C521   1.409       .  A
C520        H525   1.084       .  S
C521       C1943   1.496       .  S
C521        C522   1.422       .  A
C522       C2323   1.520       .  S
C523       C2322   1.519       .  S
C523        F529   1.379       .  S
C523       F2327   1.385       .  S
C523       F2328   1.384       .  S
C526        F531   1.383       .  S
C526        F532   1.384       .  S
C526       F1430   1.381       .  S
F527       C2323   1.386       .  S
F528       C2323   1.383       .  S
F530       C1426   1.380       .  S
C533        C534   1.400       .  A
C533        C538   1.408       .  A
C533        H540   1.080       .  S
C534        C535   1.418       .  A
C535        C536   1.410       .  A
C535       C2342   1.517       .  S
C536        C537   1.414       .  A
C536        H541   1.083       .  S
C537        C538   1.425       .  A
C538        C539   1.503       .  S
C539        F543   1.381       .  S
C539        F544   1.378       .  S
C539        F545   1.385       .  S
C542       C2335   1.517       .  S
C542        F546   1.376       .  S
C542        F547   1.382   1_655  S
C542        F548   1.384       .  S
C549        C550   1.406       .  A
C549        C554   1.406       .  A
C549        H556   1.083       .  S
C550        C551   1.422       .  A
C551       C2352   1.407       .  A
C551        C558   1.522       .  S
C552        C553   1.402   1_455  A
C552       C2351   1.408   1_455  A
C552        H557   1.084       .  S
C553       C2354   1.412       .  A
C554       C2353   1.411       .  A
C554        C555   1.515       .  S
C555        F559   1.385       .  S
C555        F561   1.383       .  S
C555       F2360   1.383       .  S
C558        F563   1.380       .  S
C558       F2362   1.383       .  S
C558       F2364   1.385       .  S
F560       C2355   1.383       .  S
F562       C2358   1.383       .  S
F564       C2358   1.385       .  S
C565        C566   1.406       .  A
C565        C570   1.401       .  A
C565        H572   1.085       .  S
C566        C567   1.421       .  A
C567        C568   1.400       .  A
C567        C574   1.522       .  S
C568        C569   1.401       .  A
C568        H573   1.082       .  S
C569        C570   1.415       .  A
C570        C571   1.514       .  S
C571        F575   1.384       .  S
C571        F576   1.375       .  S
C571        F577   1.384       .  S
C574        F578   1.383       .  S
C574        F579   1.382       .  S
C574        F580   1.386       .  S
C581        C582   1.410       .  A
C581        C586   1.400       .  A
C581        H588   1.081       .  S
C582        C583   1.427       .  A
C583        C584   1.413       .  A
C583        C590   1.520       .  S
C584        C585   1.404       .  A
C584        H589   1.081       .  S
C585       C2850   1.501   1_445  S
C585        C586   1.420       .  A
C586       C1487   1.524   1_455  S
C587       C1486   1.525   1_655  S
C587        F591   1.383       .  S
C587        F592   1.384   1_655  S
C587        F593   1.381       .  S
C590        F594   1.383       .  S
C590        F595   1.383       .  S
C590        F596   1.385       .  S
C597        C598   1.401       .  A
C597        C602   1.398       .  A
C597        H604   1.084       .  S
C598        C599   1.416       .  A
C599        C600   1.409       .  A
C599        C606   1.519       .  S
C600        C601   1.406       .  A
C600        H605   1.083       .  S
C601        C602   1.417       .  A
C602        C603   1.520       .  S
C603        F607   1.385       .  S
C603        F608   1.384       .  S
C603        F609   1.380       .  S
C606        F610   1.385       .  S
C606        F611   1.382       .  S
C606        F612   1.384       .  S
C613        C614   1.405       .  A
C613        C618   1.404       .  A
C613        H620   1.083       .  S
C614        C615   1.416       .  A
C615        C616   1.399       .  A
C615        C622   1.521       .  S
C616        C617   1.406       .  A
C616       H2421   1.082       .  S
C617       C1949   1.495   1_455  S
C617        C618   1.421       .  A
C618       C1519   1.515       .  S
C619       C1518   1.517       .  S
C619        F623   1.382       .  S
C619        F624   1.374       .  S
C619        F625   1.383   1_565  S
H621       C2416   1.082       .  S
C622        F626   1.384       .  S
C622        F627   1.381       .  S
C622       F2428   1.385       .  S
F628       C2422   1.386       .  S
C629        C634   1.408       .  A
C629       C1530   1.412       .  A
C629        H636   1.084       .  S
C630        C631   1.433       .  A
C630       C1529   1.412       .  A
C631        C632   1.401       .  A
C631        C638   1.521       .  S
C632        C633   1.394       .  A
C632        H637   1.079       .  S
C633       C1534   1.420       .  A
C634       C1533   1.418       .  A
C634        C635   1.514       .  S
C635        F639   1.383       .  S
C635        F640   1.378       .  S
C635        F641   1.384   1_565  S
C638        F642   1.383       .  S
C638        F643   1.379       .  S
C638        F644   1.385       .  S
C645        C646   1.408       .  A
C645        C650   1.408       .  A
C645        H652   1.076       .  S
C646        C647   1.424       .  A
C647        C648   1.405       .  A
C647        C654   1.520       .  S
C648        C649   1.406       .  A
C648        H653   1.083       .  S
C649        C650   1.413       .  A
C650        C651   1.515       .  S
C651        F655   1.385       .  S
C651        F656   1.382       .  S
C651        F657   1.382       .  S
C654        F658   1.382       .  S
C654        F659   1.383       .  S
C654        F660   1.385       .  S
C661        C662   1.395       .  A
C661        C666   1.407       .  A
C661        H668   1.084       .  S
C662        C663   1.410       .  A
C663        C664   1.403       .  A
C663        C670   1.518       .  S
C664        C665   1.411       .  A
C664        H669   1.082       .  S
C665        C666   1.425       .  A
C666        C667   1.504       .  S
C667        F671   1.385       .  S
C667        F672   1.380       .  S
C667        F673   1.380       .  S
C670        F674   1.383       .  S
C670        F675   1.382       .  S
C670        F676   1.384       .  S
C677        C678   1.397       .  A
C677        C682   1.402       .  A
C677        H684   1.084       .  S
C678        C679   1.413       .  A
C679        C680   1.401       .  A
C679        C686   1.518       .  S
C680        C681   1.404       .  A
C680        H685   1.083       .  S
C681        C682   1.423       .  A
C682        C683   1.520       .  S
C683        F687   1.384       .  S
C683        F688   1.383       .  S
C683        F689   1.383       .  S
C686        F690   1.383       .  S
C686        F691   1.381       .  S
C686        F692   1.385       .  S
C693        C698   1.403       .  A
C693       C1594   1.400       .  A
C693        H700   1.084       .  S
C694        C695   1.419   1_545  A
C694       C1593   1.399       .  A
C695        C696   1.410       .  A
C695        C702   1.518       .  S
C696       C1597   1.403       .  A
C696        H701   1.083       .  S
C697        C698   1.422       .  A
C697       C1596   1.403       .  A
C698        C699   1.523       .  S
C699        F703   1.385       .  S
C699        F704   1.383       .  S
C699        F705   1.380       .  S
C702        F706   1.382       .  S
C702        F707   1.383       .  S
C702        F708   1.386       .  S
C709        C710   1.405       .  A
C709        C714   1.404       .  A
C709        H716   1.083       .  S
C710        C711   1.420       .  A
C711        C712   1.397       .  A
C711        C718   1.516       .  S
C712        C713   1.406       .  A
C712        H717   1.084       .  S
C713        C714   1.424       .  A
C714        C715   1.523       .  S
C715        F719   1.385       .  S
C715        F720   1.383       .  S
C715        F721   1.384       .  S
C718        F722   1.383       .  S
C718        F723   1.370       .  S
C718        F724   1.384       .  S
C725        C726   1.405       .  A
C725        C730   1.410       .  A
C725        H732   1.083       .  S
C726        C727   1.415       .  A
C727        C728   1.398       .  A
C727        C734   1.522       .  S
C728        C729   1.403       .  A
C728        H733   1.084       .  S
C729        C730   1.414       .  A
C730        C731   1.514       .  S
C731        F735   1.385       .  S
C731        F736   1.383       .  S
C731        F737   1.382       .  S
C734        F738   1.379       .  S
C734        F739   1.383       .  S
C734        F740   1.384       .  S
C741        C742   1.407       .  A
C741        C746   1.393       .  A
C741        H748   1.083       .  S
C742       C1827   1.487   1_455  S
C742        C743   1.423       .  A
C743        C744   1.406       .  A
C743        C750   1.519       .  S
C744        C745   1.403       .  A
C744        H749   1.082       .  S
C745        C746   1.412       .  A
C746        C747   1.521       .  S
C747        F751   1.382       .  S
C747        F752   1.375       .  S
C747        F753   1.383       .  S
C750        F754   1.376       .  S
C750        F755   1.383   1_455  S
C750        F756   1.385       .  S
C757        C758   1.397       .  A
C757        C762   1.401       .  A
C757        H764   1.084       .  S
C758        C759   1.414       .  A
C759        C760   1.403       .  A
C759        C766   1.517       .  S
C760        C761   1.404       .  A
C760        H765   1.084       .  S
C761        C762   1.424       .  A
C762        C763   1.522       .  S
C763        F767   1.385       .  S
C763        F768   1.382       .  S
C763        F769   1.383       .  S
C766        F770   1.383       .  S
C766        F771   1.383       .  S
C766        F772   1.384       .  S
C773        C774   1.411       .  A
C773        C778   1.412       .  A
C773        H780   1.083       .  S
C774        C775   1.423       .  A
C775        C776   1.399       .  A
C775        C782   1.515       .  S
C776        C777   1.398       .  A
C776        H781   1.084       .  S
C777        C778   1.416       .  A
C778        C779   1.516       .  S
C779        F783   1.385       .  S
C779        F784   1.382       .  S
C779        F785   1.383       .  S
C782        F786   1.381       .  S
C782        F787   1.373       .  S
C782        F788   1.385       .  S
C789        C790   1.398       .  A
C789        C794   1.411       .  A
C789        H796   1.083       .  S
C790        C791   1.411       .  A
C791        C792   1.404       .  A
C791       C1698   1.518       .  S
C792        C793   1.411       .  A
C792        H797   1.082       .  S
C793        C794   1.434       .  A
C794        C795   1.524       .  S
C795        F799   1.385       .  S
C795        F800   1.382       .  S
C795        F801   1.383       .  S
C798       C1691   1.518       .  S
C798        F802   1.384       .  S
C798        F803   1.381       .  S
C798        F804   1.385       .  S
C805        C806   1.404       .  A
C805        C810   1.395       .  A
C805        H812   1.077       .  S
C806       C1815   1.498       .  S
C806        C807   1.432       .  A
C807        C808   1.409       .  A
C807       C2614   1.524       .  S
C808        C809   1.400       .  A
C808        H813   1.081       .  S
C809        C810   1.415       .  A
C810        C811   1.522       .  S
C811        F815   1.384       .  S
C811        F816   1.383       .  S
C811        F817   1.379       .  S
C814       C2607   1.521       .  S
C814        F818   1.383       .  S
C814        F819   1.383       .  S
C814        F820   1.385       .  S
C821        C822   1.396       .  A
C821        C826   1.408       .  A
C821       H2628   1.084       .  S
C822        C823   1.416       .  A
C823        C824   1.405       .  A
C823       C1730   1.519       .  S
C824        C825   1.410       .  A
C824        H829   1.084       .  S
C825        C826   1.430       .  A
C826       C2627   1.516       .  S
C827       C2626   1.517   1_455  S
C827        F831   1.385       .  S
C827        F832   1.383       .  S
C827       F2633   1.383       .  S
H828       C2621   1.083   1_455  S
C830       C1723   1.515       .  S
C830        F834   1.383       .  S
C830        F835   1.384       .  S
C830        F836   1.384       .  S
F833       C2627   1.381       .  S
C837        C838   1.410       .  A
C837        C842   1.425       .  A
C837        H844   1.082       .  S
C838        C839   1.424       .  A
C839        C840   1.400       .  A
C839        C846   1.521       .  S
C840        C841   1.407       .  A
C840        H845   1.082       .  S
C841        C842   1.427       .  A
C842        C843   1.516       .  S
C843        F847   1.385       .  S
C843        F848   1.383       .  S
C843        F849   1.383       .  S
C846        F850   1.383       .  S
C846        F851   1.374       .  S
C846        F852   1.384       .  S
C853        C854   1.400       .  A
C853        C858   1.405       .  A
C853        H860   1.085       .  S
C854        C855   1.414       .  A
C855        C856   1.401       .  A
C855        C862   1.517       .  S
C856        C857   1.402       .  A
C856        H861   1.083       .  S
C857        C858   1.419       .  A
C858        C859   1.517       .  S
C859        F863   1.384       .  S
C859        F864   1.383       .  S
C859        F865   1.382       .  S
C862        F866   1.383   1_545  S
C862        F867   1.379       .  S
C862        F868   1.384   1_545  S
C869        C870   1.405       .  A
C869        C874   1.410       .  A
C869        H876   1.083       .  S
C870        C871   1.424       .  A
C871        C872   1.410       .  A
C871        C878   1.513       .  S
C872        C873   1.410       .  A
C872        H877   1.084       .  S
C873        C874   1.429       .  A
C874        C875   1.522       .  S
C875        F879   1.385       .  S
C875        F880   1.382       .  S
C875        F881   1.384       .  S
C878        F882   1.369       .  S
C878        F883   1.383       .  S
C878        F884   1.383       .  S
C885        C886   1.404       .  A
C885        C890   1.402       .  A
C885        H892   1.083       .  S
C886        C887   1.422       .  A
C887        C888   1.409       .  A
C887        C894   1.520       .  S
C888        C889   1.404       .  A
C888        H893   1.083       .  S
C889        C890   1.420       .  A
C890       C1791   1.522       .  S
C891       C1790   1.521       .  S
C891        F895   1.385       .  S
C891        F896   1.382       .  S
C891       F1797   1.384   1_545  S
C894        F898   1.383       .  S
C894        F899   1.384       .  S
C894        F900   1.385       .  S
F897       C1791   1.384       .  S
C901        N902   1.364       .  A
C901       C1789   1.498       .  S
N902        C903   1.362       .  A
C903        N904   1.363       .  A
C903       C1773   1.520       .  S
C905        N906   1.352       .  A
C905        C911   1.471       .  S
C907        N908   1.354       .  A
C907        N912   1.354       .  A
C907       C1757   1.481       .  S
N908        C909   1.359       .  A
C909        N910   1.366       .  A
C909       C1741   1.510       .  S
N910        C911   1.369       .  A
C911        N912   1.357       .  A
C913        N914   1.351       .  A
C913        N918   1.362       .  A
C913       C1725   1.480       .  S
N914        C915   1.356       .  A
C915        N916   1.356       .  A
C915       C3506   1.500       .  S
N916        C917   1.360       .  A
C917        N918   1.362       .  A
C917        C921   1.472       .  S
C919        N920   1.356       .  A
C919       C1690   1.478       .  S
N920        C921   1.362       .  A
N922        C923   1.359   1_545  A
C923        N924   1.357   1_565  A
C923       C1677   1.482       .  S
C925        N926   1.350       .  A
C925        N930   1.355       .  A
C925       C1661   1.476       .  S
N926        C927   1.355       .  A
C927        N928   1.364       .  A
C927       C3442   1.503       .  S
N928        C929   1.363       .  A
C929        N930   1.362       .  A
C929        C933   1.475       .  S
C931        N932   1.367       .  A
C931        N936   1.360       .  A
C931       C1626   1.497       .  S
N932        C933   1.364       .  A
C933        N934   1.354       .  A
N934        C935   1.354       .  A
C935        N936   1.354       .  A
C935       C1613   1.490       .  S
C937       C1770   1.511       .  S
C937        C938   1.411       .  A
C937        C942   1.430       .  A
C938       C1645   1.490       .  S
C938        C939   1.408       .  A
C939       C1709   1.484       .  S
C939        C940   1.409       .  A
C940       C1738   1.510       .  S
C940        C941   1.429       .  A
C941       C1610   1.500       .  S
C941        C942   1.444       .  A
C942       C1674   1.502       .  S
Zr943       O944   2.444       .  S
Zr943       O945   2.445       .  S
Zr943       O946   2.408       .  S
Zr943       O949   2.412       .  S
Zr943       O951   2.378       .  S
Zr943       O952   2.389       .  S
Zr943       O953   2.411       .  S
Zr943       O954   2.405       .  S
O944       H1000   0.990       .  S
O944       H1008   0.991       .  S
O945        C965   1.285       .  A
O946        C967   1.278       .  A
O947       Zr957   2.454       .  S
O947        C966   1.285       .  A
O948       Zr956   2.458       .  S
O948        C967   1.288       .  A
O949        C966   1.272       .  A
O950       Zr958   2.404       .  S
O950        C965   1.277       .  A
O951       Zr956   2.394       .  S
O951       Zr958   2.384       .  S
O952       Zr957   2.408       .  S
O952       Zr958   2.376       .  S
O952        H987   0.966       .  S
O953       Zr956   2.399       .  S
O953       Zr973   2.396       .  S
O953        H990   0.969       .  S
O954       Zr957   2.398       .  S
O954       Zr973   2.399       .  S
Zr955       O980   2.441       .  S
Zr955       O974   2.423       .  S
Zr955       O982   2.409       .  S
Zr955       O970   2.391       .  S
Zr955       O961   2.387       .  S
Zr955       O962   2.392       .  S
Zr955       O963   2.376       .  S
Zr955       O964   2.380       .  S
Zr956       O975   2.435       .  S
Zr956       O968   2.435       .  S
Zr956       O969   2.459       .  S
Zr956       O962   2.398       .  S
Zr956       O963   2.388       .  S
Zr957       O959   2.435       .  S
Zr957       O981   2.435       .  S
Zr957       O983   2.455       .  S
Zr957       O961   2.398       .  S
Zr957       O964   2.397       .  S
Zr958       O984   2.435       .  S
Zr958       O985   2.437       .  S
Zr958       O960   2.438       .  S
Zr958       O961   2.391       .  S
Zr958       O962   2.385       .  S
O959        H996   0.990       .  S
O960        H991   0.990       .  S
O960       H1005   0.990       .  S
O962        H988   0.965       .  S
O963       Zr973   2.369       .  S
O964       Zr973   2.373       .  S
O964        H989   0.966       .  S
C965       C1581   1.484       .  S
C966       C1594   1.478       .  S
C967       C1562   1.473       .  S
O968       H1004   0.990       .  S
O969        C971   1.290       .  A
O970        C971   1.276       .  A
C971       C1658   1.465       .  S
O972       Zr973   2.436       .  S
O972       H1001   0.990       .  S
Zr973       O976   2.436       .  S
Zr973       O977   2.439       .  S
Zr973       O978   2.439       .  S
O974        C979   1.279       .  A
O975        H992   0.990       .  S
O975       H1007   0.990       .  S
O976        H993   0.990       .  S
O977        H997   0.990       .  S
O977       H1006   0.989       .  S
O978        C979   1.285       .  A
C979       C1693   1.507       .  S
O980        H999   0.990       .  S
O980       H1003   0.990       .  S
O981        H995   0.990       .  S
O981       H1002   0.990       .  S
O982        C986   1.280       .  A
O983        C986   1.288       .  A
O984        H994   0.990       .  S
O985        H998   0.990       .  S
C986       C1754   1.470       .  S
C1009      N1010   1.350       .  A
C1009      N1014   1.357       .  A
C1009      C1546   1.496       .  S
N1010      C1011   1.354       .  A
C1011      C1019   1.461       .  S
C1013      N1014   1.359       .  A
C1013      C1530   1.496       .  S
C1015      N1016   1.353       .  A
C1015      N1020   1.360       .  A
C1015      C1597   1.473       .  S
N1016      C1017   1.351       .  A
C1017      N1018   1.353       .  A
C1017      C1514   1.478       .  S
N1018      C1019   1.357       .  A
C1019      N1020   1.361       .  A
C1021      N1022   1.353       .  A
C1021      N1026   1.350       .  A
C1021      C1501   1.467       .  S
N1022      C1023   1.356       .  A
C1023      N1024   1.359       .  A
C1023      C1029   1.461       .  S
N1024      C1025   1.356       .  A
C1025      N1026   1.356       .  A
C1025      C1482   1.495       .  S
C1027      N1028   1.355       .  A
C1027      N1032   1.357       .  A
C1027      C1578   1.469       .  S
N1028      C1029   1.355       .  A
C1029      N1030   1.356       .  A
N1030      C1031   1.358       .  A
C1031      N1032   1.357       .  A
C1031      C1466   1.483       .  S
C1033      N1034   1.351       .  A
C1033      N1038   1.357       .  A
C1033      C1450   1.488       .  S
N1034      C1035   1.358       .  A
C1035      N1036   1.364       .  A
C1035      C1041   1.479       .  S
N1036      C1037   1.368       .  A
C1037      N1038   1.364       .  A
C1037      C1437   1.511       .  S
C1039      N1040   1.370       .  A
C1039      N1044   1.360       .  A
C1039      C1565   1.510       .  S
N1040      C1041   1.367       .  A
C1041      N2842   1.356       .  A
N1042      C2841   1.360       .  A
N1042      C1043   1.351       .  A
C1043      N2844   1.353       .  A
C1043      C3221   1.484       .  S
N1044      C2843   1.353       .  A
C1045      C1046   1.414       .  A
C1045      C1050   1.419       .  A
C1046      C1533   1.493       .  S
C1046      C1047   1.416       .  A
C1047      C1469   1.495       .  S
C1047      C1048   1.420       .  A
C1048      C1434   1.499       .  S
C1048      C1049   1.425       .  A
C1049      C3317   1.504       .  S
C1049      C1050   1.424       .  A
C1050      C2385   1.489   1_565  S
C1051      N1052   1.351       .  A
C1051      N1056   1.357       .  A
C1051      C1402   1.481       .  S
N1052      C1053   1.352       .  A
C1053      N1054   1.363       .  A
C1053      C1059   1.464       .  S
N1054      C1055   1.363       .  A
C1055      N1056   1.363       .  A
C1055      C1386   1.499       .  S
C1057      N1058   1.356       .  A
C1057      N1062   1.360       .  A
C1057      C1370   1.473       .  S
N1058      C1059   1.353       .  A
C1059      N1060   1.360       .  A
N1060      C1061   1.356       .  A
C1061      N1062   1.363       .  A
C1061      C1354   1.507       .  S
C1063      N1064   1.353       .  A
C1063      N1068   1.356       .  A
C1063      C1338   1.474       .  S
N1064      C1065   1.357       .  A
C1065      N1066   1.359       .  A
C1065      C1071   1.461   1_455  S
N1066      C1067   1.358       .  A
C1067      N1068   1.359       .  A
C1067      C1325   1.494       .  S
C1069      N2870   1.359       .  A
C1069      N1074   1.355       .  A
C1069      C1306   1.492       .  S
N1070      C2869   1.360       .  A
N1070      C1071   1.351       .  A
C1071      N2872   1.350       .  A
N1072      C2871   1.355       .  A
N1072      C1073   1.354       .  A
C1073      N1074   1.362       .  A
C1073      C1290   1.498       .  S
C1075      N1076   1.360       .  A
C1075      N1080   1.356       .  A
C1075      C1277   1.478       .  S
N1076      C1077   1.361       .  A
C1077      N1078   1.357       .  A
C1077      C1261   1.482       .  S
N1078      C1079   1.348       .  A
C1079      N1080   1.354       .  A
C1079      C2885   1.457   1_455  S
C1081      N1082   1.347       .  A
C1081      N1086   1.357       .  A
C1081      C1245   1.478       .  S
N1082      C1083   1.354       .  A
C1083      N1084   1.355       .  A
C1083      C1229   1.487       .  S
N1084      C1085   1.360       .  A
C1085      N1086   1.358       .  A
C1085      C2879   1.460       .  S
C1087      C1389   1.510       .  S
C1087      C1088   1.426       .  A
C1087      C1092   1.409       .  A
C1088      C1258   1.483       .  S
C1088      C1089   1.431       .  A
C1089      C1322   1.491       .  S
C1089      C1090   1.413       .  A
C1090      C1357   1.497       .  S
C1090      C1091   1.405       .  A
C1091      C1226   1.481       .  S
C1091      C1092   1.409       .  A
C1092      C1293   1.481       .  S
Zr1093     O2894   2.440       .  S
Zr1093     O1095   2.428       .  S
Zr1093     O1096   2.399       .  S
Zr1093     O1101   2.373       .  S
Zr1093     O1102   2.375       .  S
Zr1093     O1103   2.394       .  S
Zr1093     O2004   2.397   1_565  S
O1094     Zr2893   2.438   1_445  S
O1094      H1150   0.990       .  S
O1094      H1158   0.990       .  S
O1095      C1115   1.281       .  A
O1096      C1117   1.279       .  A
O1097     Zr1107   2.445       .  S
O1097      C2916   1.286       .  A
O1098     Zr1106   2.421       .  S
O1098      C1117   1.281       .  A
O1099      C2916   1.280       .  A
O1100     Zr1108   2.432       .  S
O1100      C1115   1.284       .  A
O1101     Zr1106   2.392       .  S
O1101     Zr1108   2.367       .  S
O1102     Zr1108   2.369       .  S
O1103     Zr1106   2.396       .  S
O1103     Zr2923   2.391       .  S
O1103      H1140   0.963       .  S
O1104     Zr1993   2.399   1_455  S
O1104     Zr2907   2.393   1_455  S
Zr1105     O1130   2.440       .  S
Zr1105     O1124   2.438       .  S
Zr1105     O1120   2.403       .  S
Zr1105     O1111   2.402   1_554  S
Zr1105     O1112   2.398   1_554  S
Zr1105     O1113   2.375   1_554  S
Zr1105     O1114   2.377   1_564  S
Zr1106     O1125   2.435       .  S
Zr1106     O1118   2.437       .  S
Zr1106     O1119   2.435   1_556  S
Zr1106     O1112   2.397       .  S
Zr1106     O1113   2.390       .  S
Zr1107     O2909   2.436       .  S
Zr1107     O1131   2.436       .  S
Zr1107     O1133   2.452   1_556  S
Zr1107     O2904   2.407       .  S
Zr1108     O1134   2.437       .  S
Zr1108     O1135   2.435       .  S
Zr1108     O1110   2.438       .  S
Zr1108     O1111   2.406       .  S
Zr1108     O1112   2.402       .  S
O1109     Zr2907   2.437   1_455  S
O1109      H1146   0.990       .  S
O1110      H1141   0.990       .  S
O1110      H1155   0.990       .  S
O1112      H1138   0.965       .  S
O1113     Zr2923   2.383       .  S
O1114     Zr2923   2.373   1_545  S
O1114      H2039   0.964   1_556  S
C1115      C1373   1.503       .  S
C1116      C1274   1.468       .  S
C1116      O2897   1.286       .  A
C1116      O2899   1.281       .  A
C1117      C1309   1.454       .  S
O1118      H1154   0.990       .  S
O1119      C1121   1.283       .  A
O1120      C1121   1.277       .  A
C1121      C1629   1.462       .  S
O1122     Zr1123   2.440   1_545  S
O1122      H1151   0.990       .  S
Zr1123     O1126   2.440       .  S
Zr1123     O1128   2.434   1_556  S
Zr1123     O2903   2.394       .  S
Zr1123     O2913   2.375   1_455  S
Zr1123     O2914   2.375   1_465  S
O1124      C2929   1.285       .  A
O1125      H1142   0.990       .  S
O1125      H1157   0.990       .  S
O1126      H1143   0.990       .  S
O1127      H1147   0.990   1_556  S
O1127      H1156   0.989       .  S
O1128      C1129   1.284       .  A
C1129      C1786   1.492       .  S
C1129      O2924   1.286   1_455  A
O1130      H1149   0.990       .  S
O1130      H1153   0.990       .  S
O1131      H1145   0.990       .  S
O1131      H1152   0.990       .  S
O1132      C1136   1.277       .  A
O1133      C1136   1.288       .  A
O1134      H1144   0.991       .  S
O1135      H1148   0.990   1_556  S
C1136      C1722   1.461       .  S
H1139      O2014   0.965   1_554  S
Zr1159     O1160   2.440       .  S
Zr1159     O1161   2.405       .  S
Zr1159     O1162   2.399       .  S
Zr1159     O1165   2.410       .  S
Zr1159     O1167   2.379       .  S
Zr1159     O1168   2.381       .  S
Zr1159     O1169   2.395       .  S
Zr1159     O1170   2.388       .  S
O1160      H1216   0.990       .  S
O1160      H1224   0.990       .  S
O1161      C1181   1.281       .  A
O1162      C1183   1.278       .  A
O1163     Zr1173   2.466       .  S
O1163      C1182   1.291       .  A
O1164     Zr1172   2.431       .  S
O1164      C1183   1.282       .  A
O1165      C1182   1.280       .  A
O1166     Zr1174   2.418       .  S
O1166      C1181   1.279       .  A
O1167     Zr1172   2.391       .  S
O1167     Zr1174   2.380       .  S
O1168     Zr1173   2.385       .  S
O1168     Zr1174   2.373       .  S
O1168      H1203   0.966       .  S
O1169     Zr1172   2.408       .  S
O1169     Zr1189   2.389       .  S
O1169      H1206   0.967       .  S
O1170     Zr1173   2.398       .  S
O1170     Zr1189   2.397       .  S
Zr1171     O1196   2.442       .  S
Zr1171     O1190   2.402       .  S
Zr1171     O1198   2.378       .  S
Zr1171     O1186   2.404       .  S
Zr1171     O1177   2.393       .  S
Zr1171     O1178   2.386       .  S
Zr1171     O1179   2.373       .  S
Zr1171     O1180   2.380       .  S
Zr1172     O1191   2.437       .  S
Zr1172     O1184   2.434       .  S
Zr1172     O1185   2.448       .  S
Zr1172     O1178   2.395       .  S
Zr1172     O1179   2.394       .  S
Zr1173     O1175   2.432       .  S
Zr1173     O1197   2.437   1_455  S
Zr1173     O1199   2.459       .  S
Zr1173     O1177   2.399       .  S
Zr1173     O1180   2.387       .  S
Zr1174     O1200   2.435   1_455  S
Zr1174     O1201   2.438       .  S
Zr1174     O1176   2.440       .  S
Zr1174     O1177   2.389       .  S
Zr1174     O1178   2.394       .  S
O1175      H1212   0.990       .  S
O1176      H1207   0.990       .  S
O1176      H1221   0.990       .  S
O1178      H1204   0.967       .  S
O1179     Zr1189   2.381       .  S
O1180     Zr1189   2.371       .  S
O1180      H1205   0.968       .  S
C1181      C1341   1.484       .  S
C1182      C1242   1.479       .  S
C1183      C1405   1.456       .  S
O1184      H1220   0.989       .  S
O1185      C1187   1.285       .  A
O1186      C1187   1.282       .  A
C1187      C1549   1.484       .  S
O1188     Zr1189   2.436       .  S
O1188      H1217   0.990       .  S
Zr1189     O1192   2.434       .  S
Zr1189     O1193   2.438       .  S
Zr1189     O1194   2.414       .  S
O1190      C1195   1.277       .  A
O1191      H1208   0.991       .  S
O1191      H1223   0.990       .  S
O1192      H1209   0.990       .  S
O1193      H1213   0.991       .  S
O1193      H1222   0.990       .  S
O1194      C1195   1.281       .  A
C1195      C1498   1.472       .  S
O1196      H1215   0.990       .  S
O1196      H1219   0.990       .  S
O1197      H3011   0.990       .  S
O1197      H1218   0.990       .  S
O1198      C1202   1.275       .  A
O1199      C1202   1.288       .  A
O1200      H1210   0.990       .  S
O1201      H1214   0.989       .  S
C1202      C1453   1.464   1_455  S
H1211      O2997   0.990       .  S
C1225      C1226   1.402       .  A
C1225      C1230   1.407       .  A
C1225      H1232   1.081       .  S
C1226      C1227   1.415       .  A
C1227      C1228   1.391       .  A
C1227      C1234   1.520       .  S
C1228      C1229   1.405       .  A
C1228      H1233   1.083       .  S
C1229      C1230   1.422       .  A
C1230      C1231   1.517       .  S
C1231      F1235   1.383       .  S
C1231      F1236   1.382       .  S
C1231      F1237   1.385       .  S
C1234      F1238   1.383       .  S
C1234      F1239   1.384       .  S
C1234      F1240   1.371       .  S
C1241      C1242   1.396   1_655  A
C1241      C3046   1.407       .  A
C1241      H3048   1.083       .  S
C1242      C1243   1.416       .  A
C1243      C1244   1.412       .  A
C1243      C1250   1.517       .  S
C1244      C3045   1.411   1_455  A
C1244      H1249   1.084       .  S
C1245      C3044   1.406       .  A
C1245      C1246   1.425       .  A
C1246      C3041   1.400       .  A
C1246      C1247   1.522       .  S
C1247      F1251   1.385       .  S
C1247      F1252   1.383       .  S
C1247      F1253   1.381       .  S
H1248      C3041   1.084       .  S
C1250      F1254   1.383       .  S
C1250      F1255   1.384       .  S
C1250      F1256   1.384       .  S
C1257      C1258   1.406       .  A
C1257      C1262   1.403       .  A
C1257      H1264   1.082       .  S
C1258      C1259   1.416       .  A
C1259      C1260   1.397       .  A
C1259      C1266   1.516       .  S
C1260      C1261   1.406       .  A
C1260      H1265   1.084       .  S
C1261      C1262   1.420       .  A
C1262      C1263   1.521       .  S
C1263      F1267   1.385       .  S
C1263      F1268   1.384       .  S
C1263      F1269   1.381       .  S
C1266      F1270   1.371       .  S
C1266      F1271   1.384       .  S
C1266      F1272   1.383       .  S
C1273      C1274   1.402   1_455  A
C1273      C1278   1.408       .  A
C1273      H1280   1.085       .  S
C1274      C1275   1.414       .  A
C1275      C1276   1.396       .  A
C1275      C3082   1.517       .  S
C1276      C1277   1.404   1_655  A
C1276      H1281   1.083       .  S
C1277      C1278   1.419       .  A
C1278      C1279   1.516       .  S
C1279      F1283   1.384       .  S
C1279      F1284   1.382       .  S
C1279      F1285   1.383       .  S
C1282      C3075   1.516       .  S
C1282      F1286   1.383       .  S
C1282      F1287   1.379       .  S
C1282      F1288   1.384       .  S
C1289      C1290   1.404       .  A
C1289      C1294   1.391       .  A
C1289      H1296   1.074       .  S
C1290      C1291   1.428       .  A
C1291      C1292   1.409       .  A
C1291      C1298   1.519       .  S
C1292      C1293   1.401       .  A
C1292      H1297   1.082       .  S
C1293      C1294   1.415       .  A
C1294      C1295   1.523       .  S
C1295      F1299   1.384       .  S
C1295      F1300   1.373       .  S
C1295      F1301   1.383       .  S
C1298      F1302   1.384       .  S
C1298      F1303   1.383       .  S
C1298      F1304   1.383       .  S
C1305      C1306   1.411       .  A
C1305      C1310   1.399       .  A
C1305      H3112   1.082       .  S
C1306      C1307   1.431       .  A
C1307      C1308   1.402       .  A
C1307      C1314   1.517       .  S
C1308      C1309   1.392       .  A
C1308      H1313   1.084       .  S
C1309      C1310   1.405       .  A
C1310      C3111   1.518       .  S
C1311      C3110   1.518       .  S
C1311      F1315   1.383       .  S
C1311      F1316   1.384       .  S
C1311      F1317   1.382       .  S
H1312      C3105   1.081       .  S
C1314      F1318   1.383       .  S
C1314      F1319   1.382       .  S
C1314      F1320   1.386       .  S
C1321      C1322   1.411       .  A
C1321      H1328   1.080       .  S
C1322      C1323   1.417       .  A
C1323      C1324   1.392       .  A
C1323      C1330   1.515       .  S
C1324      H1329   1.085       .  S
C1325      C1326   1.421       .  A
C1326      C1327   1.518       .  S
C1327      F1331   1.383       .  S
C1327      F1332   1.384       .  S
C1327      F1333   1.382       .  S
C1330      F1334   1.369       .  S
C1330      F1335   1.383       .  S
C1330      F1336   1.384       .  S
C1337      C1338   1.402       .  A
C1337      C1342   1.404       .  A
C1337      H1344   1.083       .  S
C1338      C1339   1.415       .  A
C1339      C1340   1.401       .  A
C1339      C1346   1.520       .  S
C1340      C1341   1.407       .  A
C1340      H1345   1.083       .  S
C1341      C1342   1.423       .  A
C1342      C1343   1.522       .  S
C1343      F1347   1.384       .  S
C1343      F1348   1.383       .  S
C1343      F1349   1.384       .  S
C1346      F1350   1.379       .  S
C1346      F1351   1.383       .  S
C1346      F1352   1.386       .  S
C1353      C1358   1.399       .  A
C1353      H1360   1.080       .  S
C1354      C1355   1.432       .  A
C1355      C1362   1.519       .  S
C1356      C1357   1.400       .  A
C1356      H1361   1.081       .  S
C1357      C1358   1.416       .  A
C1358      C1359   1.516       .  S
C1359      F1363   1.383       .  S
C1359      F1364   1.375       .  S
C1359      F1365   1.382       .  S
C1362      F1366   1.383       .  S
C1362      F1367   1.383       .  S
C1362      F1368   1.384       .  S
C1369      C1370   1.398       .  A
C1369      C1374   1.408       .  A
C1369      H1376   1.083       .  S
C1370      C1371   1.408       .  A
C1371      C1372   1.407       .  A
C1372      C1373   1.415       .  A
C1373      C1374   1.431       .  A
C1374      C1375   1.523       .  S
C1375      F1379   1.385       .  S
C1375      F1380   1.383       .  S
C1375      F1381   1.383       .  S
C1378      F1382   1.383       .  S
C1378      F1384   1.385       .  S
C1385      C1386   1.402       .  A
C1385      C1390   1.401       .  A
C1385      H1392   1.080       .  S
C1386      C1387   1.422       .  A
C1387      C1388   1.415       .  A
C1387      C1394   1.518       .  S
C1388      C1389   1.409       .  A
C1388      H1393   1.080       .  S
C1389      C1390   1.425       .  A
C1390      C1391   1.521       .  S
C1391      F1395   1.384       .  S
C1391      F1396   1.377       .  S
C1391      F1397   1.384       .  S
C1394      F1398   1.384       .  S
C1394      F1399   1.383       .  S
C1394      F1400   1.385       .  S
C1401      C1402   1.407       .  A
C1401      C1406   1.398       .  A
C1401      H1408   1.084       .  S
C1402      C1403   1.421       .  A
C1403      C1404   1.405       .  A
C1403      C1410   1.515       .  S
C1404      C1405   1.398       .  A
C1404      H1409   1.084       .  S
C1405      C1406   1.409       .  A
C1406      C1407   1.517       .  S
C1407      F1411   1.381       .  S
C1407      F1412   1.383       .  S
C1407      F1413   1.383       .  S
C1410      F1414   1.379       .  S
C1410      F1415   1.383       .  S
C1410      F1416   1.385       .  S
C1417      C1418   1.400       .  A
C1417      C1422   1.402       .  A
C1417      H1424   1.081       .  S
C1418      C1419   1.422       .  A
C1419      C1420   1.402       .  A
C1419      C1426   1.521       .  S
C1420      C1421   1.404       .  A
C1420      H1425   1.085       .  S
C1421      C2843   1.484       .  S
C1421      C1422   1.421       .  A
C1422      C3223   1.520       .  S
C1423      C3222   1.519       .  S
C1423      F3227   1.386       .  S
C1423      F3228   1.383       .  S
C1423      F1429   1.381       .  S
C1426      F1431   1.383       .  S
C1426      F1432   1.384       .  S
F1427      C3223   1.385       .  S
F1428      C3223   1.383       .  S
C1433      C1434   1.399       .  A
C1433      C1438   1.406       .  A
C1433      H1440   1.082       .  S
C1434      C1435   1.419       .  A
C1435      C1436   1.405       .  A
C1435      C3242   1.517       .  S
C1436      C1437   1.411       .  A
C1436      H1441   1.083       .  S
C1437      C1438   1.425       .  A
C1438      C1439   1.506       .  S
C1439      F1443   1.382       .  S
C1439      F1444   1.377       .  S
C1439      F1445   1.386       .  S
C1442      C3235   1.518       .  S
C1442      F1446   1.378       .  S
C1442      F1447   1.380   1_655  S
C1442      F1448   1.383       .  S
C1449      C1450   1.409       .  A
C1449      C1454   1.409       .  A
C1449      H1456   1.083       .  S
C1450      C1451   1.425       .  A
C1451      C3252   1.406       .  A
C1451      C1458   1.522       .  S
C1452      C3251   1.406       .  A
C1452      C1453   1.403   1_455  A
C1452      H1457   1.084       .  S
C1453      C3254   1.411       .  A
C1454      C3253   1.409       .  A
C1454      C1455   1.516       .  S
C1455      F1459   1.384       .  S
C1455      F3260   1.383       .  S
C1455      F1461   1.383       .  S
C1458      F3262   1.383       .  S
C1458      F1463   1.380       .  S
C1458      F3264   1.386       .  S
F1460      C3255   1.383       .  S
F1462      C3258   1.384       .  S
F1464      C3258   1.385       .  S
C1465      C1466   1.403       .  A
C1465      C1470   1.402       .  A
C1465      H1472   1.085       .  S
C1466      C1467   1.419       .  A
C1467      C1468   1.405       .  A
C1467      C1474   1.520       .  S
C1468      C1469   1.404       .  A
C1468      H1473   1.082       .  S
C1469      C1470   1.420       .  A
C1470      C1471   1.513       .  S
C1471      F1475   1.384       .  S
C1471      F1476   1.372       .  S
C1471      F1477   1.383       .  S
C1474      F1478   1.383       .  S
C1474      F1479   1.382       .  S
C1474      F1480   1.385       .  S
C1481      C1482   1.409       .  A
C1481      C1486   1.394       .  A
C1481      H1488   1.083       .  S
C1482      C1483   1.427       .  A
C1483      C1484   1.407       .  A
C1483      C1490   1.520       .  S
C1484      C1485   1.400       .  A
C1484      H1489   1.082       .  S
C1485      C1950   1.486   1_455  S
C1485      C1486   1.419       .  A
C1487      F1491   1.383       .  S
C1487      F1492   1.385   1_655  S
C1487      F1493   1.381       .  S
C1490      F1494   1.383       .  S
C1490      F1495   1.383       .  S
C1490      F1496   1.385       .  S
C1497      C1498   1.404       .  A
C1497      C1502   1.398       .  A
C1497      H1504   1.083       .  S
C1498      C1499   1.419       .  A
C1499      C1500   1.404       .  A
C1499      C1506   1.521       .  S
C1500      C1501   1.402       .  A
C1500      H1505   1.083       .  S
C1501      C1502   1.416       .  A
C1502      C1503   1.522       .  S
C1503      F1507   1.385       .  S
C1503      F1508   1.383       .  S
C1503      F1509   1.382       .  S
C1506      F1510   1.384       .  S
C1506      F1511   1.383       .  S
C1506      F1512   1.384       .  S
C1513      C1514   1.406       .  A
C1513      C1518   1.405       .  A
C1513      H1520   1.083       .  S
C1514      C1515   1.416       .  A
C1515      C1516   1.395       .  A
C1515      C1522   1.521       .  S
C1516      C1517   1.404       .  A
C1516      H3321   1.083       .  S
C1517      C2849   1.492   1_455  S
C1517      C1518   1.422       .  A
C1519      F1523   1.381       .  S
C1519      F1524   1.373       .  S
C1519      F1525   1.383       .  S
H1521      C3316   1.083       .  S
C1522      F1526   1.384       .  S
C1522      F1527   1.382       .  S
C1522      F3328   1.385       .  S
F1528      C3322   1.385       .  S
C1529      C1534   1.413       .  A
C1529      H1536   1.084       .  S
C1530      C1531   1.425       .  A
C1531      C1532   1.396       .  A
C1531      C1538   1.520       .  S
C1532      C1533   1.396       .  A
C1532      H1537   1.077       .  S
C1534      C1535   1.514       .  S
C1535      F1539   1.384       .  S
C1535      F1540   1.378       .  S
C1535      F1541   1.383       .  S
C1538      F1542   1.384       .  S
C1538      F1543   1.379       .  S
C1538      F1544   1.384       .  S
C1545      C1546   1.410       .  A
C1545      C1550   1.410       .  A
C1545      H1552   1.079       .  S
C1546      C1547   1.425       .  A
C1547      C1548   1.401       .  A
C1547      C1554   1.521       .  S
C1548      C1549   1.402       .  A
C1548      H1553   1.083       .  S
C1549      C1550   1.413       .  A
C1550      C1551   1.516       .  S
C1551      F1555   1.385       .  S
C1551      F1556   1.382       .  S
C1551      F1557   1.383       .  S
C1554      F1558   1.383       .  S
C1554      F1559   1.382       .  S
C1554      F1560   1.385       .  S
C1561      C1562   1.397       .  A
C1561      C1566   1.411       .  A
C1561      H1568   1.084       .  S
C1562      C1563   1.411       .  A
C1563      C1564   1.402       .  A
C1563      C1570   1.516       .  S
C1564      C1565   1.413       .  A
C1564      H1569   1.083       .  S
C1565      C1566   1.426       .  A
C1566      C1567   1.505       .  S
C1567      F1571   1.385       .  S
C1567      F1572   1.383       .  S
C1567      F1573   1.379       .  S
C1570      F1574   1.384       .  S
C1570      F1575   1.383       .  S
C1570      F1576   1.384       .  S
C1577      C1578   1.397       .  A
C1577      C1582   1.404       .  A
C1577      H1584   1.084       .  S
C1578      C1579   1.412       .  A
C1579      C1580   1.405       .  A
C1579      C1586   1.514       .  S
C1580      C1581   1.406       .  A
C1580      H1585   1.084       .  S
C1581      C1582   1.424       .  A
C1582      C1583   1.518       .  S
C1583      F1587   1.385       .  S
C1583      F1588   1.383       .  S
C1583      F1589   1.383       .  S
C1586      F1590   1.384       .  S
C1586      F1591   1.381       .  S
C1586      F1592   1.384       .  S
C1593      C1598   1.401       .  A
C1593      H1600   1.084       .  S
C1594      C1595   1.419       .  A
C1595      C1596   1.410       .  A
C1595      C1602   1.517       .  S
C1596      H1601   1.083       .  S
C1597      C1598   1.418   1_565  A
C1598      C1599   1.523       .  S
C1599      F1603   1.384       .  S
C1599      F1604   1.384       .  S
C1599      F1605   1.381       .  S
C1602      F1606   1.382       .  S
C1602      F1607   1.383       .  S
C1602      F1608   1.386       .  S
C1609      C1610   1.407       .  A
C1609      C1614   1.407       .  A
C1609      H1616   1.082       .  S
C1610      C1611   1.424       .  A
C1611      C1612   1.402       .  A
C1611      C1618   1.516       .  S
C1612      C1613   1.404       .  A
C1612      H1617   1.085       .  S
C1613      C1614   1.422       .  A
C1614      C1615   1.521       .  S
C1615      F1619   1.385       .  S
C1615      F1620   1.382       .  S
C1615      F1621   1.384       .  S
C1618      F1622   1.383       .  S
C1618      F1623   1.372       .  S
C1618      F1624   1.383       .  S
C1625      C1626   1.411       .  A
C1625      C1630   1.407       .  A
C1625      H1632   1.083       .  S
C1626      C1627   1.423       .  A
C1627      C1628   1.403       .  A
C1627      C1634   1.505       .  S
C1628      C1629   1.394       .  A
C1628      H1633   1.084       .  S
C1629      C1630   1.408       .  A
C1630      C1631   1.516       .  S
C1631      F1635   1.384       .  S
C1631      F1636   1.383       .  S
C1631      F1637   1.383       .  S
C1634      F1638   1.379       .  S
C1634      F1639   1.383       .  S
C1634      F1640   1.386       .  S
C1641      C1642   1.411       .  A
C1641      C1646   1.400       .  A
C1641      H1648   1.083       .  S
C1642      C2727   1.504   1_455  S
C1642      C1643   1.422       .  A
C1643      C1644   1.406       .  A
C1643      C1650   1.506       .  S
C1644      C1645   1.401       .  A
C1644      H1649   1.082       .  S
C1645      C1646   1.414       .  A
C1646      C1647   1.519       .  S
C1647      F1651   1.382       .  S
C1647      F1652   1.376       .  S
C1647      F1653   1.384       .  S
C1650      F1654   1.378       .  S
C1650      F1655   1.384   1_455  S
C1650      F1656   1.385       .  S
C1657      C1658   1.399       .  A
C1657      C1662   1.401       .  A
C1657      H1664   1.084       .  S
C1658      C1659   1.419       .  A
C1659      C1660   1.407       .  A
C1659      C1666   1.519       .  S
C1660      C1661   1.404       .  A
C1660      H1665   1.085       .  S
C1661      C1662   1.418       .  A
C1662      C1663   1.522       .  S
C1663      F1667   1.385       .  S
C1663      F1668   1.381       .  S
C1663      F1669   1.385       .  S
C1666      F1670   1.383       .  S
C1666      F1671   1.383       .  S
C1666      F1672   1.384       .  S
C1673      C1674   1.410       .  A
C1673      C1678   1.412       .  A
C1673      H1680   1.082       .  S
C1674      C1675   1.423       .  A
C1675      C1676   1.401       .  A
C1675      C1682   1.517       .  S
C1676      C1677   1.398       .  A
C1676      H1681   1.085       .  S
C1677      C1678   1.415       .  A
C1678      C1679   1.517       .  S
C1679      F1683   1.385       .  S
C1679      F1684   1.383       .  S
C1679      F1685   1.384       .  S
C1682      F1686   1.382       .  S
C1682      F1687   1.375       .  S
C1682      F1688   1.385       .  S
C1689      C1690   1.397       .  A
C1689      C1694   1.411       .  A
C1689      H1696   1.083       .  S
C1690      C1691   1.411       .  A
C1691      C1692   1.408       .  A
C1692      C1693   1.413       .  A
C1692      H1697   1.082       .  S
C1693      C1694   1.433       .  A
C1694      C1695   1.523       .  S
C1695      F1699   1.384       .  S
C1695      F1700   1.383       .  S
C1695      F1701   1.384       .  S
C1698      F1702   1.383       .  S
C1698      F1703   1.381   1_545  S
C1698      F1704   1.385       .  S
C1705      C1706   1.405       .  A
C1705      C1710   1.397       .  A
C1705      H1712   1.075       .  S
C1706      C2715   1.499   1_455  S
C1706      C1707   1.427       .  A
C1707      C1708   1.406       .  A
C1707      C3514   1.517       .  S
C1708      C1709   1.398       .  A
C1708      H1713   1.081       .  S
C1709      C1710   1.415       .  A
C1710      C1711   1.523       .  S
C1711      F1715   1.384       .  S
C1711      F1716   1.382       .  S
C1711      F1717   1.379       .  S
C1714      C3507   1.519       .  S
C1714      F1718   1.383       .  S
C1714      F1719   1.383       .  S
C1714      F1720   1.385       .  S
C1721      C1722   1.397       .  A
C1721      C1726   1.401       .  A
C1721      H3528   1.084       .  S
C1722      C1723   1.410       .  A
C1723      C1724   1.407       .  A
C1724      C1725   1.406       .  A
C1724      H1729   1.083       .  S
C1725      C1726   1.425       .  A
C1726      C3527   1.523       .  S
C1727      C3526   1.517   1_455  S
C1727      F1731   1.384       .  S
C1727      F1732   1.383       .  S
C1727      F3533   1.383       .  S
H1728      C3521   1.084   1_455  S
C1730      F1734   1.384   1_545  S
C1730      F1735   1.382       .  S
C1730      F1736   1.383       .  S
F1733      C3527   1.379       .  S
C1737      C1738   1.410       .  A
C1737      C1742   1.421       .  A
C1737      H1744   1.082       .  S
C1738      C1739   1.424       .  A
C1739      C1740   1.400       .  A
C1739      C1746   1.523       .  S
C1740      C1741   1.406       .  A
C1740      H1745   1.081       .  S
C1741      C1742   1.425       .  A
C1742      C1743   1.516       .  S
C1743      F1747   1.384       .  S
C1743      F1748   1.383       .  S
C1743      F1749   1.384       .  S
C1746      F1750   1.383       .  S
C1746      F1751   1.375       .  S
C1746      F1752   1.384       .  S
C1753      C1754   1.402       .  A
C1753      C1758   1.406       .  A
C1753      H1760   1.084       .  S
C1754      C1755   1.413       .  A
C1755      C1756   1.404       .  A
C1755      C1762   1.514       .  S
C1756      C1757   1.403       .  A
C1756      H1761   1.083       .  S
C1757      C1758   1.419       .  A
C1758      C1759   1.519       .  S
C1759      F1763   1.383       .  S
C1759      F1764   1.384       .  S
C1759      F1765   1.382       .  S
C1762      F1766   1.383       .  S
C1762      F1767   1.382       .  S
C1762      F1768   1.384       .  S
C1769      C1770   1.402       .  A
C1769      C1774   1.410       .  A
C1769      H1776   1.083       .  S
C1770      C1771   1.419       .  A
C1771      C1772   1.416       .  A
C1771      C1778   1.515       .  S
C1772      C1773   1.416       .  A
C1772      H1777   1.083       .  S
C1773      C1774   1.431       .  A
C1774      C1775   1.520       .  S
C1775      F1779   1.385       .  S
C1775      F1780   1.382       .  S
C1775      F1781   1.384       .  S
C1778      F1782   1.374       .  S
C1778      F1783   1.383       .  S
C1778      F1784   1.383       .  S
C1785      C1786   1.405       .  A
C1785      C1790   1.413   1_565  A
C1785      H1792   1.083   1_565  S
C1786      C1787   1.419       .  A
C1787      C1788   1.407       .  A
C1787      C1794   1.519       .  S
C1788      C1789   1.405       .  A
C1788      H1793   1.080       .  S
C1789      C1790   1.426   1_565  A
C1791      F1795   1.385       .  S
C1791      F1796   1.382       .  S
C1794      F1798   1.382       .  S
C1794      F1799   1.384       .  S
C1794      F1800   1.385       .  S
C1801      N1802   1.363       .  A
C1801      N2706   1.353       .  A
C1801      C2689   1.480       .  S
N1802      C1803   1.359       .  A
C1803      N1804   1.367       .  A
C1803      C2673   1.515       .  S
N1804      C2705   1.363       .  A
C1805      N2704   1.360       .  A
C1805      N1806   1.357       .  A
C1805      C1811   1.474       .  S
N1806      C2701   1.361       .  A
C1807      N1808   1.357       .  A
C1807      N1812   1.351       .  A
C1807      C2657   1.484       .  S
N1808      C1809   1.363       .  A
C1809      N1810   1.369       .  A
C1809      C2641   1.508       .  S
N1810      C1811   1.369       .  A
C1811      N1812   1.357       .  A
C1813      N1814   1.360       .  A
C1813      N1818   1.359       .  A
C1813      C2625   1.506       .  S
N1814      C1815   1.366   1_655  A
C1815      N1816   1.350   1_455  A
N1816      C1817   1.351       .  A
C1817      N1818   1.353       .  A
C1817      C1821   1.455       .  S
C1819      N1820   1.353       .  A
C1819      N2724   1.351       .  A
C1819      C2590   1.466       .  S
N1820      C1821   1.358       .  A
C1821      N2722   1.358       .  A
N1822      C2721   1.360       .  A
N1822      C1823   1.358       .  A
C1823      N1824   1.360       .  A
C1823      C2577   1.482       .  S
N1824      C2719   1.353       .  A
C1825      N1826   1.349       .  A
C1825      N1830   1.361       .  A
C1825      C2561   1.487       .  S
N1826      C1827   1.353       .  A
C1827      N1828   1.353       .  A
N1828      C1829   1.359       .  A
C1829      N1830   1.363       .  A
C1829      C1833   1.465       .  S
C1831      N1832   1.353       .  A
C1831      N1836   1.358       .  A
C1831      C2526   1.472       .  S
N1832      C1833   1.356       .  A
C1833      N1834   1.357       .  A
N1834      C1835   1.362       .  A
C1835      N1836   1.357       .  A
C1835      C2513   1.500       .  S
C1837      C2670   1.514       .  S
C1837      C1838   1.410       .  A
C1837      C1842   1.422       .  A
C1838      C2545   1.480       .  S
C1838      C1839   1.412       .  A
C1839      C2609   1.492       .  S
C1839      C1840   1.417       .  A
C1840      C2638   1.518       .  S
C1840      C1841   1.435       .  A
C1841      C2510   1.502       .  S
C1841      C1842   1.440       .  A
C1842      C2574   1.496       .  S
Zr1843     O1844   2.444       .  S
Zr1843     O1845   2.415       .  S
Zr1843     O1846   2.403       .  S
Zr1843     O1849   2.411       .  S
Zr1843     O1851   2.380       .  S
Zr1843     O1852   2.382       .  S
Zr1843     O1853   2.402       .  S
Zr1843     O1854   2.394       .  S
O1844      H1900   0.990       .  S
O1844      H1908   0.990       .  S
O1845      C1865   1.280       .  A
O1846      C1867   1.278       .  A
O1847     Zr1857   2.460       .  S
O1847      C1866   1.285       .  A
O1848     Zr1856   2.458       .  S
O1848      C1867   1.288       .  A
O1849      C1866   1.272       .  A
O1850     Zr1858   2.416       .  S
O1850      C1865   1.278       .  A
O1851     Zr1856   2.399       .  S
O1851     Zr1858   2.382       .  S
O1852     Zr1857   2.401       .  S
O1852     Zr1858   2.375       .  S
O1852      H1887   0.967       .  S
O1853     Zr1856   2.402       .  S
O1853     Zr1873   2.382       .  S
O1853      H1890   0.970       .  S
O1854     Zr1857   2.405       .  S
O1854     Zr1873   2.395       .  S
Zr1855     O1880   2.442       .  S
Zr1855     O1874   2.434       .  S
Zr1855     O1882   2.392       .  S
Zr1855     O1870   2.384       .  S
Zr1855     O1861   2.396       .  S
Zr1855     O1862   2.399       .  S
Zr1855     O1863   2.374       .  S
Zr1855     O1864   2.379       .  S
Zr1856     O1875   2.438       .  S
Zr1856     O1868   2.435       .  S
Zr1856     O1869   2.462       .  S
Zr1856     O1862   2.398       .  S
Zr1856     O1863   2.390       .  S
Zr1857     O1859   2.433   1_545  S
Zr1857     O1881   2.436       .  S
Zr1857     O1883   2.457       .  S
Zr1857     O1861   2.402       .  S
Zr1857     O1864   2.401       .  S
Zr1858     O1884   2.437       .  S
Zr1858     O1885   2.436       .  S
Zr1858     O1860   2.439       .  S
Zr1858     O1861   2.400       .  S
Zr1858     O1862   2.393       .  S
O1859      H1896   0.990       .  S
O1860      H1891   0.990       .  S
O1860      H1905   0.990       .  S
O1862      H1888   0.966       .  S
O1863     Zr1873   2.370       .  S
O1864     Zr1873   2.375       .  S
O1864      H1889   0.965       .  S
C1865      C2481   1.473       .  S
C1866      C2494   1.477       .  S
C1867      C2462   1.470       .  S
O1868      H1904   0.990       .  S
O1869      C1871   1.289       .  A
O1870      C1871   1.275       .  A
C1871      C2558   1.467       .  S
O1872     Zr1873   2.437       .  S
O1872      H1901   0.990       .  S
Zr1873     O1876   2.439       .  S
Zr1873     O1877   2.437       .  S
Zr1873     O1878   2.413       .  S
O1874      C1879   1.281       .  A
O1875      H1892   0.990       .  S
O1875      H1907   0.990       .  S
O1876      H1893   0.990       .  S
O1877      H1897   0.990       .  S
O1877      H1906   0.990   1_545  S
O1878      C1879   1.281       .  A
C1879      C2593   1.500       .  S
O1880      H1899   0.991       .  S
O1880      H1903   0.990       .  S
O1881      H1895   0.991       .  S
O1881      H1902   0.990       .  S
O1882      C1886   1.276       .  A
O1883      C1886   1.288       .  A
O1884      H1894   0.990       .  S
O1885      H1898   0.990       .  S
C1886      C2654   1.465       .  S
C1909      N1910   1.352       .  A
C1909      N1914   1.355       .  A
C1909      C2446   1.497       .  S
N1910      C1911   1.358       .  A
C1911      N2812   1.362       .  A
C1911      C1919   1.470       .  S
N1912      C2811   1.358       .  A
N1912      C2813   1.359       .  A
C1913      N2812   1.365       .  A
C1913      N1914   1.356       .  A
C1913      C2430   1.501       .  S
C1915      N1916   1.354       .  A
C1915      N1920   1.364       .  A
C1915      C2497   1.474       .  S
N1916      C1917   1.351       .  A
C1917      N1918   1.354       .  A
C1917      C2414   1.480       .  S
N1918      C1919   1.357       .  A
C1919      N1920   1.363       .  A
C1921      N1922   1.353       .  A
C1921      N1926   1.352       .  A
C1921      C2401   1.473       .  S
N1922      C1923   1.357       .  A
C1923      N1924   1.356       .  A
C1923      C1929   1.455       .  S
N1924      C1925   1.353       .  A
C1925      N1926   1.359       .  A
C1925      C2382   1.495       .  S
C1927      N1928   1.355       .  A
C1927      N1932   1.357       .  A
C1927      C2478   1.472       .  S
N1928      C1929   1.355       .  A
C1929      N1930   1.353       .  A
N1930      C1931   1.355       .  A
C1931      N1932   1.357       .  A
C1931      C2366   1.479       .  S
C1933      N1934   1.355       .  A
C1933      N1938   1.354       .  A
C1933      C2350   1.490       .  S
N1934      C1935   1.361       .  A
C1935      N1936   1.366       .  A
C1935      C1941   1.482       .  S
N1936      C1937   1.368       .  A
C1937      N1938   1.360       .  A
C1937      C2337   1.513       .  S
C1939      N1940   1.368       .  A
C1939      N1944   1.357       .  A
C1939      C2465   1.508       .  S
N1940      C1941   1.368       .  A
N1942      C1943   1.356       .  A
C1945      C3218   1.497       .  S
C1945      C1946   1.410       .  A
C1945      C1950   1.414       .  A
C1946      C2433   1.483       .  S
C1946      C1947   1.413       .  A
C1947      C2369   1.488       .  S
C1947      C1948   1.416       .  A
C1948      C2334   1.497       .  S
C1948      C1949   1.421       .  A
C1949      C1950   1.421       .  A
C1951      N1952   1.355       .  A
C1951      N1956   1.360       .  A
C1951      C2302   1.492       .  S
N1952      C1953   1.356       .  A
C1953      N1954   1.361       .  A
C1953      C1959   1.469       .  S
N1954      C1955   1.362       .  A
C1955      N1956   1.365       .  A
C1955      C2286   1.501       .  S
C1957      N1958   1.361       .  A
C1957      N1962   1.361       .  A
C1957      C2270   1.486       .  S
N1958      C1959   1.356       .  A
C1959      N1960   1.358       .  A
N1960      C1961   1.355       .  A
C1961      N1962   1.362       .  A
C1961      C2254   1.508       .  S
C1963      N1964   1.358       .  A
C1963      N1968   1.353       .  A
C1963      C2238   1.480       .  S
N1964      C1965   1.361       .  A
C1965      N1966   1.368       .  A
C1965      C1971   1.475       .  S
N1966      C1967   1.362       .  A
C1967      N1968   1.356       .  A
C1967      C2225   1.493       .  S
C1969      N1974   1.357       .  A
C1969      C2206   1.500       .  S
N1970      C1971   1.353       .  A
N1972      C1973   1.353       .  A
C1973      N1974   1.365       .  A
C1973      C2190   1.498       .  S
C1975      N1976   1.358       .  A
C1975      N1980   1.359       .  A
C1975      C2177   1.482       .  S
N1976      C1977   1.356       .  A
C1977      N1978   1.357       .  A
C1977      C2161   1.479       .  S
N1978      C1979   1.354       .  A
C1979      N1980   1.360       .  A
C1981      N1982   1.353       .  A
C1981      N1986   1.361       .  A
C1981      C2145   1.489       .  S
N1982      C1983   1.359       .  A
C1983      N1984   1.352       .  A
C1983      C2129   1.484       .  S
N1984      C1985   1.354       .  A
C1985      N1986   1.362       .  A
C1987      C2289   1.502       .  S
C1987      C1988   1.434       .  A
C1987      C1992   1.416       .  A
C1988      C2158   1.498       .  S
C1988      C1989   1.432       .  A
C1989      C2222   1.496       .  S
C1989      C1990   1.411       .  A
C1990      C2257   1.488       .  S
C1990      C1991   1.401       .  A
C1991      C2126   1.487       .  S
C1991      C1992   1.407       .  A
C1992      C2193   1.491       .  S
Zr1993     O1995   2.419       .  S
Zr1993     O1996   2.407       .  S
Zr1993     O2899   2.409       .  S
Zr1993     O2001   2.375       .  S
Zr1993     O2002   2.376       .  S
Zr1993     O2003   2.397   1_655  S
O1994      H2050   0.990       .  S
O1994      H2058   0.990       .  S
O1995      C2015   1.281       .  A
O1996      C2017   1.282       .  A
O1997     Zr2007   2.461       .  S
O1998     Zr2006   2.438       .  S
O1998      C2017   1.285       .  A
O1999     Zr2893   2.417   1_545  S
O2000     Zr2008   2.427       .  S
O2000      C2015   1.283       .  A
O2001     Zr2006   2.390       .  S
O2001     Zr2008   2.371       .  S
O2002     Zr2907   2.389       .  S
O2002     Zr2008   2.369       .  S
O2002      H2937   0.961       .  S
O2003     Zr2006   2.396   1_455  S
O2003      H2040   0.960       .  S
O2004     Zr2923   2.395   1_545  S
Zr2005     O2030   2.440       .  S
Zr2005     O2024   2.416   1_655  S
Zr2005     O2932   2.409       .  S
Zr2005     O2020   2.393       .  S
Zr2005     O2011   2.390   1_554  S
Zr2005     O2012   2.395   1_554  S
Zr2005     O2013   2.370   1_554  S
Zr2005     O2014   2.379   1_654  S
Zr2006     O2025   2.438   1_655  S
Zr2006     O2018   2.433       .  S
Zr2006     O2019   2.447   1_556  S
Zr2006     O2012   2.401       .  S
Zr2006     O2013   2.380       .  S
Zr2007     O2031   2.435       .  S
Zr2007     O2033   2.464   1_556  S
Zr2007     O2902   2.393   1_545  S
Zr2007     O2911   2.394   1_545  S
Zr2007     O2914   2.393       .  S
Zr2008     O2034   2.436       .  S
Zr2008     O2035   2.435       .  S
Zr2008     O2010   2.436       .  S
Zr2008     O2011   2.396       .  S
Zr2008     O2012   2.398       .  S
O2009      H2046   0.990       .  S
O2010      H2041   0.990       .  S
O2010      H2055   0.990       .  S
O2011     Zr2907   2.400       .  S
O2012      H2038   0.966       .  S
O2014     Zr2907   2.393   1_455  S
C2015      C2273   1.481       .  S
C2016      C2174   1.466       .  S
C2017      C2209   1.467       .  S
O2018      H2054   0.989       .  S
O2019      C2021   1.285       .  A
O2020      C2021   1.277       .  A
C2021      C2529   1.467       .  S
O2022     Zr2023   2.434       .  S
O2022      H2051   0.990       .  S
Zr2023     O2026   2.435       .  S
Zr2023     O2927   2.439       .  S
Zr2023     O2028   2.415   1_556  S
Zr2023     O2904   2.393       .  S
O2025      H2042   0.990   1_455  S
O2025      H2057   0.990       .  S
O2026      H2043   0.989       .  S
O2027     Zr2923   2.438   1_545  S
O2027      H2047   0.990       .  S
O2027      H2056   0.990       .  S
O2028      C2029   1.278       .  A
C2029      C2686   1.481       .  S
O2030      H2049   0.990       .  S
O2030      H2053   0.991       .  S
O2031      H2045   0.990       .  S
O2031      H2052   0.990       .  S
O2032     Zr2905   2.399   1_545  S
O2032      C2036   1.279       .  A
O2033      C2036   1.291       .  A
O2034      H2044   0.990       .  S
O2035      H2048   0.990   1_556  S
C2036      C2622   1.480       .  S
H2037      O2902   0.963   1_545  S
Zr2059     O2060   2.441       .  S
Zr2059     O2061   2.429       .  S
Zr2059     O2062   2.389       .  S
Zr2059     O2065   2.400       .  S
Zr2059     O2067   2.374       .  S
Zr2059     O2068   2.371       .  S
Zr2059     O2069   2.397       .  S
Zr2059     O2070   2.392       .  S
O2060      H2116   0.991       .  S
O2060      H2124   0.990       .  S
O2061      C2081   1.285       .  A
O2062      C2083   1.276       .  A
O2063     Zr2073   2.461       .  S
O2063      C2082   1.290       .  A
O2064     Zr2072   2.462       .  S
O2064      C2083   1.289       .  A
O2065      C2082   1.279       .  A
O2066     Zr2074   2.433       .  S
O2066      C2081   1.282       .  A
O2067     Zr2072   2.396       .  S
O2067     Zr2074   2.374       .  S
O2068     Zr2073   2.391       .  S
O2068     Zr2074   2.371       .  S
O2068      H2103   0.966       .  S
O2069     Zr2072   2.402       .  S
O2069     Zr2089   2.393       .  S
O2069      H2106   0.966       .  S
O2070     Zr2073   2.403       .  S
O2070     Zr2089   2.403       .  S
Zr2071     O2096   2.441       .  S
Zr2071     O2090   2.418       .  S
Zr2071     O2098   2.388       .  S
Zr2071     O2086   2.379       .  S
Zr2071     O2077   2.392       .  S
Zr2071     O2078   2.391       .  S
Zr2071     O2079   2.375       .  S
Zr2071     O2080   2.370       .  S
Zr2072     O2091   2.435       .  S
Zr2072     O2084   2.435       .  S
Zr2072     O2085   2.465       .  S
Zr2072     O2078   2.403       .  S
Zr2072     O2079   2.394       .  S
Zr2073     O2075   2.435       .  S
Zr2073     O2097   2.435       .  S
Zr2073     O2099   2.467       .  S
Zr2073     O2077   2.399       .  S
Zr2073     O2080   2.389       .  S
Zr2074     O2100   2.436       .  S
Zr2074     O2101   2.435       .  S
Zr2074     O2076   2.439       .  S
Zr2074     O2077   2.406       .  S
Zr2074     O2078   2.388       .  S
O2075      H2112   0.990       .  S
O2076      H2107   0.989       .  S
O2076      H2121   0.990       .  S
O2078      H2104   0.966       .  S
O2079     Zr2089   2.373       .  S
O2080     Zr2089   2.371       .  S
O2080      H2105   0.966       .  S
C2081      C2241   1.499       .  S
C2082      C2142   1.470       .  S
C2083      C2305   1.467       .  S
O2084      H2120   0.990       .  S
O2085      C2087   1.290       .  A
O2086      C2087   1.277       .  A
C2087      C2449   1.478       .  S
O2088     Zr2089   2.435       .  S
O2088      H2117   0.990       .  S
Zr2089     O2092   2.437       .  S
Zr2089     O2093   2.436       .  S
Zr2089     O2094   2.430       .  S
O2090      C2095   1.279       .  A
O2091      H2108   0.990       .  S
O2091      H2123   0.990       .  S
O2092      H2109   0.990       .  S
O2093      H2113   0.990       .  S
O2093      H2122   0.990       .  S
O2094      C2095   1.285       .  A
C2095      C2398   1.482       .  S
O2096      H2115   0.991       .  S
O2096      H2119   0.990       .  S
O2097      H2118   0.990       .  S
O2098      C2102   1.276       .  A
O2099      C2102   1.289       .  A
O2100      H2110   0.990       .  S
O2101      H2114   0.990       .  S
C2102      C2353   1.471       .  S
C2125      C2126   1.400       .  A
C2125      C2130   1.406       .  A
C2125      H2132   1.081       .  S
C2126      C2127   1.420       .  A
C2127      C2128   1.393       .  A
C2127      C2134   1.518       .  S
C2128      C2129   1.402       .  A
C2128      H2133   1.085       .  S
C2129      C2130   1.424       .  A
C2130      C2131   1.519       .  S
C2131      F2135   1.383       .  S
C2131      F2136   1.382       .  S
C2131      F2137   1.385       .  S
C2134      F2138   1.383       .  S
C2134      F2139   1.384       .  S
C2134      F2140   1.371       .  S
C2141      C2142   1.397       .  A
C2142      C2143   1.413       .  A
C2143      C2144   1.412       .  A
C2143      C2150   1.516       .  S
C2144      H2149   1.083       .  S
C2145      C2146   1.425       .  A
C2146      C2147   1.520       .  S
C2147      F2151   1.385       .  S
C2147      F2152   1.381       .  S
C2147      F2153   1.381       .  S
C2150      F2154   1.383       .  S
C2150      F2155   1.383       .  S
C2150      F2156   1.385       .  S
C2157      C2158   1.409       .  A
C2157      C2162   1.403       .  A
C2157      H2164   1.082       .  S
C2158      C2159   1.422       .  A
C2159      C2160   1.402       .  A
C2159      C2166   1.513       .  S
C2160      C2161   1.402       .  A
C2160      H2165   1.085       .  S
C2161      C2162   1.416       .  A
C2162      C2163   1.523       .  S
C2163      F2167   1.386       .  S
C2163      F2168   1.384       .  S
C2163      F2169   1.380       .  S
C2166      F2170   1.372       .  S
C2166      F2171   1.383       .  S
C2166      F2172   1.384       .  S
C2173      C2174   1.400       .  A
C2173      C2178   1.405       .  A
C2173      H2180   1.085       .  S
C2174      C2175   1.413       .  A
C2175      C2176   1.404       .  A
C2176      C2177   1.405       .  A
C2176      H2181   1.083       .  S
C2177      C2178   1.420       .  A
C2178      C2179   1.517       .  S
C2179      F2183   1.384       .  S
C2179      F2184   1.383       .  S
C2179      F2185   1.382       .  S
C2182      F2186   1.383       .  S
C2182      F2187   1.378       .  S
C2182      F2188   1.385       .  S
C2189      C2190   1.402       .  A
C2189      C2194   1.393       .  A
C2189      H2196   1.075       .  S
C2190      C2191   1.428       .  A
C2191      C2192   1.411       .  A
C2191      C2198   1.521       .  S
C2192      C2193   1.405       .  A
C2192      H2197   1.081       .  S
C2193      C2194   1.416       .  A
C2194      C2195   1.520       .  S
C2195      F2199   1.384       .  S
C2195      F2200   1.374       .  S
C2195      F2201   1.384       .  S
C2198      F2202   1.384       .  S
C2198      F2203   1.383       .  S
C2198      F2204   1.383       .  S
C2205      C2206   1.409       .  A
C2205      C2210   1.397       .  A
C2206      C2207   1.431       .  A
C2207      C2208   1.409       .  A
C2207      C2214   1.518       .  S
C2208      C2209   1.398       .  A
C2208      H2213   1.083       .  S
C2209      C2210   1.411       .  A
C2211      F2215   1.383       .  S
C2211      F2216   1.382       .  S
C2211      F2217   1.384       .  S
C2214      F2218   1.383       .  S
C2214      F2219   1.383       .  S
C2214      F2220   1.385       .  S
C2221      C2222   1.409       .  A
C2221      C3126   1.410   1_545  A
C2221      H2228   1.081       .  S
C2222      C2223   1.418       .  A
C2223      C2224   1.400   1_545  A
C2223      C2230   1.517       .  S
C2224      C3125   1.403       .  A
C2224      H2229   1.085       .  S
C2225      C3124   1.403       .  A
C2225      C2226   1.418       .  A
C2226      C3121   1.414       .  A
C2226      C2227   1.516       .  S
C2227      F2231   1.385       .  S
C2227      F2232   1.383       .  S
C2227      F2233   1.382       .  S
C2230      F2234   1.372       .  S
C2230      F2235   1.382       .  S
C2230      F2236   1.385       .  S
C2237      C2238   1.401       .  A
C2237      C2242   1.407       .  A
C2237      H2244   1.083       .  S
C2238      C2239   1.413       .  A
C2239      C2240   1.407       .  A
C2239      C2246   1.518       .  S
C2240      C2241   1.411       .  A
C2240      H2245   1.082       .  S
C2241      C2242   1.427       .  A
C2242      C2243   1.521       .  S
C2243      F2247   1.386       .  S
C2243      F2248   1.383       .  S
C2243      F2249   1.381       .  S
C2246      F2250   1.380       .  S
C2246      F2251   1.383       .  S
C2246      F2252   1.385       .  S
C2253      C3154   1.408   1_545  A
C2253      C2258   1.399       .  A
C2253      H2260   1.075   1_545  S
C2254      C3153   1.407       .  A
C2254      C2255   1.432       .  A
C2255      C3156   1.415       .  A
C2255      C2262   1.520       .  S
C2256      C3155   1.411   1_545  A
C2256      C2257   1.396       .  A
C2256      H2261   1.082       .  S
C2257      C2258   1.414       .  A
C2258      C2259   1.521       .  S
C2259      F2263   1.383       .  S
C2259      F2264   1.378       .  S
C2259      F2265   1.383       .  S
C2262      F2266   1.383       .  S
C2262      F2267   1.384       .  S
C2262      F2268   1.384       .  S
C2269      C2270   1.407       .  A
C2269      C2274   1.406       .  A
C2269      H2276   1.083       .  S
C2270      C2271   1.421       .  A
C2271      C2272   1.403       .  A
C2271      C3178   1.519       .  S
C2272      C2273   1.402       .  A
C2272      H3177   1.085       .  S
C2273      C2274   1.418       .  A
C2274      C2275   1.519       .  S
C2275      F2279   1.385       .  S
C2275      F2280   1.382       .  S
C2275      F2281   1.382       .  S
H2277      C3172   1.083       .  S
C2278      C3171   1.517       .  S
C2278      F2282   1.383       .  S
C2278      F3183   1.377       .  S
C2278      F2284   1.385       .  S
F2283      C3178   1.383       .  S
C2285      C2286   1.402       .  A
C2285      C2290   1.401       .  A
C2285      H2292   1.082       .  S
C2286      C2287   1.426       .  A
C2287      C2288   1.415       .  A
C2287      C2294   1.518       .  S
C2288      C2289   1.405       .  A
C2288      H2293   1.082       .  S
C2289      C2290   1.426       .  A
C2290      C2291   1.522       .  S
C2291      F2295   1.383       .  S
C2291      F2296   1.376       .  S
C2291      F2297   1.383       .  S
C2294      F2298   1.383       .  S
C2294      F2299   1.383       .  S
C2294      F2300   1.385       .  S
C2301      C2302   1.408       .  A
C2301      C2306   1.403       .  A
C2301      H2308   1.084       .  S
C2302      C2303   1.422       .  A
C2303      C2304   1.409       .  A
C2303      C2310   1.515       .  S
C2304      C2305   1.400       .  A
C2304      H2309   1.084       .  S
C2305      C2306   1.413       .  A
C2306      C2307   1.518       .  S
C2307      F2311   1.382       .  S
C2307      F2312   1.384       .  S
C2307      F2313   1.383       .  S
C2310      F2314   1.381       .  S
C2310      F2315   1.383       .  S
C2310      F2316   1.385       .  S
C2317      C2318   1.406       .  A
C2317      C2322   1.408       .  A
C2317      H2324   1.082       .  S
C2318      C2845   1.496   1_545  S
C2318      C2319   1.421       .  A
C2319      C2320   1.400       .  A
C2319      C2326   1.523       .  S
C2320      C2321   1.405       .  A
C2320      H2325   1.084       .  S
C2321      C2322   1.419       .  A
C2323      F2329   1.379       .  S
C2326      F3230   1.381       .  S
C2326      F2331   1.382   1_655  S
C2326      F2332   1.384       .  S
F2330      C3226   1.381       .  S
C2333      C2334   1.400       .  A
C2333      C2338   1.406       .  A
C2333      H2340   1.081       .  S
C2334      C2335   1.417       .  A
C2335      C2336   1.403       .  A
C2336      C2337   1.412       .  A
C2336      H2341   1.083       .  S
C2337      C2338   1.425       .  A
C2338      C2339   1.504       .  S
C2339      F2343   1.381       .  S
C2339      F2344   1.380       .  S
C2339      F2345   1.386       .  S
C2342      F2346   1.378       .  S
C2342      F2347   1.383       .  S
C2342      F2348   1.384       .  S
C2349      C2350   1.409       .  A
C2349      C2354   1.409       .  A
C2349      H2356   1.083       .  S
C2350      C2351   1.422       .  A
C2351      C2358   1.520   1_655  S
C2352      C2353   1.403       .  A
C2352      H2357   1.084       .  S
C2354      C2355   1.516       .  S
C2355      F2359   1.385       .  S
C2355      F2361   1.383       .  S
C2358      F2363   1.380   1_455  S
C2365      C2366   1.404       .  A
C2365      C2370   1.400       .  A
C2365      H2372   1.085       .  S
C2366      C2367   1.418       .  A
C2367      C2368   1.402       .  A
C2367      C2374   1.520       .  S
C2368      C2369   1.403       .  A
C2368      H2373   1.080       .  S
C2369      C2370   1.417       .  A
C2370      C2371   1.513       .  S
C2371      F2375   1.384       .  S
C2371      F2376   1.374       .  S
C2371      F2377   1.382       .  S
C2374      F2378   1.383       .  S
C2374      F2379   1.381       .  S
C2374      F2380   1.385       .  S
C2381      C2382   1.404       .  A
C2381      C2386   1.391       .  A
C2381      H2388   1.083       .  S
C2382      C2383   1.429       .  A
C2383      C2384   1.411       .  A
C2383      C2390   1.521       .  S
C2384      C2385   1.402       .  A
C2384      H2389   1.082       .  S
C2385      C2386   1.420       .  A
C2386      C3287   1.522       .  S
C2387      C3286   1.524       .  S
C2387      F2391   1.383       .  S
C2387      F2392   1.384       .  S
C2387      F2393   1.381       .  S
C2390      F2394   1.384       .  S
C2390      F2395   1.383       .  S
C2390      F2396   1.384       .  S
C2397      C2398   1.404       .  A
C2397      C2402   1.401       .  A
C2397      H2404   1.083       .  S
C2398      C2399   1.422       .  A
C2399      C2400   1.408       .  A
C2399      C2406   1.520       .  S
C2400      C2401   1.402       .  A
C2400      H2405   1.084       .  S
C2401      C2402   1.415       .  A
C2402      C2403   1.521       .  S
C2403      F2407   1.385       .  S
C2403      F2408   1.384       .  S
C2403      F2409   1.382       .  S
C2406      F2410   1.384       .  S
C2406      F2411   1.383       .  S
C2406      F2412   1.385       .  S
C2413      C2414   1.405       .  A
C2413      C2418   1.404       .  A
C2413      H2420   1.083       .  S
C2414      C2415   1.417       .  A
C2415      C2416   1.399       .  A
C2415      C2422   1.521       .  S
C2416      C2417   1.405       .  A
C2417      C2418   1.421       .  A
C2418      C3319   1.515       .  S
C2419      C3318   1.514       .  S
C2419      F2423   1.382       .  S
C2419      F2424   1.373       .  S
C2419      F2425   1.383   1_565  S
C2422      F2426   1.383       .  S
C2422      F2427   1.381       .  S
C2429      C3330   1.405       .  A
C2429      C2434   1.406       .  A
C2429      H2436   1.084       .  S
C2430      C3329   1.414       .  A
C2430      C2431   1.431       .  A
C2431      C2432   1.393       .  A
C2431      C2438   1.520       .  S
C2432      C2433   1.391       .  A
C2432      H2437   1.080       .  S
C2433      C3334   1.414       .  A
C2434      C3333   1.421       .  A
C2434      C2435   1.512       .  S
C2435      F2439   1.383       .  S
C2435      F2440   1.376       .  S
C2435      F2441   1.383   1_565  S
C2438      F2442   1.384       .  S
C2438      F2443   1.377       .  S
C2438      F2444   1.386       .  S
C2445      C2446   1.410       .  A
C2445      C2450   1.407       .  A
C2445      H2452   1.075       .  S
C2446      C2447   1.423       .  A
C2447      C2448   1.403       .  A
C2447      C2454   1.520       .  S
C2448      C2449   1.406       .  A
C2448      H2453   1.083       .  S
C2449      C2450   1.408       .  A
C2450      C2451   1.516       .  S
C2451      F2455   1.384       .  S
C2451      F2456   1.384       .  S
C2451      F2457   1.382       .  S
C2454      F2458   1.383       .  S
C2454      F2459   1.382       .  S
C2454      F2460   1.385       .  S
C2461      C2462   1.397       .  A
C2461      C2466   1.410       .  A
C2461      H2468   1.084       .  S
C2462      C2463   1.410       .  A
C2463      C2464   1.400       .  A
C2463      C2470   1.516       .  S
C2464      C2465   1.412       .  A
C2464      H2469   1.083       .  S
C2465      C2466   1.424       .  A
C2466      C2467   1.501       .  S
C2467      F2471   1.385       .  S
C2467      F2472   1.384       .  S
C2467      F2473   1.375       .  S
C2470      F2474   1.384       .  S
C2470      F2475   1.382       .  S
C2470      F2476   1.384       .  S
C2477      C2478   1.405       .  A
C2477      C2482   1.407       .  A
C2477      H2484   1.083       .  S
C2478      C2479   1.413       .  A
C2479      C2480   1.398       .  A
C2479      C2486   1.516       .  S
C2480      C2481   1.402       .  A
C2480      H2485   1.084       .  S
C2481      C2482   1.416       .  A
C2482      C2483   1.518       .  S
C2483      F2487   1.385       .  S
C2483      F2488   1.383       .  S
C2483      F2489   1.382       .  S
C2486      F2490   1.383       .  S
C2486      F2491   1.379       .  S
C2486      F2492   1.385       .  S
C2493      C3394   1.399       .  A
C2493      C2498   1.403       .  A
C2493      H2500   1.083       .  S
C2494      C3393   1.401       .  A
C2494      C2495   1.416   1_545  A
C2495      C2496   1.414       .  A
C2495      C2502   1.516       .  S
C2496      C3397   1.405       .  A
C2496      H2501   1.083       .  S
C2497      C3396   1.403       .  A
C2497      C2498   1.419       .  A
C2498      C2499   1.520       .  S
C2499      F2503   1.382       .  S
C2499      F2504   1.383       .  S
C2499      F2505   1.380       .  S
C2502      F2506   1.383       .  S
C2502      F2507   1.383       .  S
C2502      F2508   1.385       .  S
C2509      C2510   1.409       .  A
C2509      C2514   1.411       .  A
C2509      H2516   1.082       .  S
C2510      C2511   1.420       .  A
C2511      C2512   1.402       .  A
C2511      C2518   1.515       .  S
C2512      C2513   1.406       .  A
C2512      H2517   1.084       .  S
C2513      C2514   1.427       .  A
C2514      C2515   1.525       .  S
C2515      F2519   1.385       .  S
C2515      F2520   1.383       .  S
C2515      F2521   1.384       .  S
C2518      F2522   1.383       .  S
C2518      F2523   1.371       .  S
C2518      F2524   1.383       .  S
C2525      C2526   1.403       .  A
C2525      C2530   1.405       .  A
C2525      H2532   1.083       .  S
C2526      C2527   1.417       .  A
C2527      C2528   1.404       .  A
C2527      C2534   1.521       .  S
C2528      C2529   1.403       .  A
C2528      H2533   1.084       .  S
C2529      C2530   1.412       .  A
C2530      C2531   1.515       .  S
C2531      F2535   1.385       .  S
C2531      F2536   1.382       .  S
C2531      F2537   1.383       .  S
C2534      F2538   1.376       .  S
C2534      F2539   1.383       .  S
C2534      F2540   1.384   1_655  S
C2541      C2542   1.403       .  A
C2541      C2546   1.390       .  A
C2541      H2548   1.084       .  S
C2542      C2543   1.423       .  A
C2543      C2544   1.405       .  A
C2543      C2550   1.519       .  S
C2544      C2545   1.402       .  A
C2544      H2549   1.082       .  S
C2545      C2546   1.414       .  A
C2546      C2547   1.518       .  S
C2547      F2551   1.383       .  S
C2547      F2552   1.373       .  S
C2547      F2553   1.384       .  S
C2550      F2554   1.380       .  S
C2550      F2555   1.383       .  S
C2550      F2556   1.385       .  S
C2557      C2558   1.397       .  A
C2557      C2562   1.404       .  A
C2557      H2564   1.084       .  S
C2558      C2559   1.416       .  A
C2559      C2560   1.405       .  A
C2559      C2566   1.518       .  S
C2560      C2561   1.406       .  A
C2560      H2565   1.084       .  S
C2561      C2562   1.428       .  A
C2562      C2563   1.524       .  S
C2563      F2567   1.384       .  S
C2563      F2568   1.380   1_655  S
C2563      F2569   1.384       .  S
C2566      F2570   1.383       .  S
C2566      F2571   1.383       .  S
C2566      F2572   1.383       .  S
C2573      C2574   1.411       .  A
C2573      C2578   1.414       .  A
C2573      H2580   1.083       .  S
C2574      C2575   1.422       .  A
C2575      C2576   1.396       .  A
C2575      C2582   1.516       .  S
C2576      C2577   1.397       .  A
C2576      H2581   1.085       .  S
C2577      C2578   1.417       .  A
C2578      C2579   1.518       .  S
C2579      F2583   1.384       .  S
C2579      F2584   1.384       .  S
C2579      F2585   1.383       .  S
C2582      F2586   1.381       .  S
C2582      F2587   1.373       .  S
C2582      F2588   1.385       .  S
C2589      C2590   1.396       .  A
C2589      C2594   1.407       .  A
C2589      H2596   1.083       .  S
C2590      C2591   1.407       .  A
C2591      C2592   1.401       .  A
C2591      C3498   1.520       .  S
C2592      C2593   1.415       .  A
C2592      H2597   1.081       .  S
C2593      C2594   1.430       .  A
C2594      C2595   1.520       .  S
C2595      F2599   1.386       .  S
C2595      F2600   1.378       .  S
C2595      F2601   1.382       .  S
C2598      C3491   1.516       .  S
C2598      F2602   1.381       .  S
C2598      F2603   1.382       .  S
C2598      F2604   1.384       .  S
C2605      C2606   1.408       .  A
C2605      C2610   1.399       .  A
C2605      H2612   1.074       .  S
C2606      C2607   1.430       .  A
C2607      C2608   1.413       .  A
C2608      C2609   1.402       .  A
C2608      H2613   1.080       .  S
C2609      C2610   1.413       .  A
C2610      C2611   1.524       .  S
C2611      F2615   1.384       .  S
C2611      F2616   1.382       .  S
C2611      F2617   1.380       .  S
C2614      F2618   1.383       .  S
C2614      F2619   1.384   1_455  S
C2614      F2620   1.385       .  S
C2621      C2622   1.399       .  A
C2621      C2626   1.412       .  A
C2622      C2623   1.416       .  A
C2623      C2624   1.400       .  A
C2623      C3530   1.518       .  S
C2624      C2625   1.410       .  A
C2624      H2629   1.082       .  S
C2625      C2626   1.431       .  A
C2627      F2631   1.385       .  S
C2627      F2632   1.384       .  S
C2630      C3523   1.518       .  S
C2630      F2634   1.380       .  S
C2630      F2635   1.384       .  S
C2630      F2636   1.384       .  S
C2637      C2638   1.410       .  A
C2637      C2642   1.421       .  A
C2637      H2644   1.082       .  S
C2638      C2639   1.430       .  A
C2639      C2640   1.402       .  A
C2639      C2646   1.521       .  S
C2640      C2641   1.402       .  A
C2640      H2645   1.083       .  S
C2641      C2642   1.423       .  A
C2642      C2643   1.515       .  S
C2643      F2647   1.385       .  S
C2643      F2648   1.382       .  S
C2643      F2649   1.384       .  S
C2646      F2650   1.384       .  S
C2646      F2651   1.371       .  S
C2646      F2652   1.384       .  S
C2653      C2654   1.399       .  A
C2653      C2658   1.404       .  A
C2653      H2660   1.085       .  S
C2654      C2655   1.413       .  A
C2655      C2656   1.406       .  A
C2655      C2662   1.515       .  S
C2656      C2657   1.407       .  A
C2656      H2661   1.084       .  S
C2657      C2658   1.421       .  A
C2658      C2659   1.516       .  S
C2659      F2663   1.384       .  S
C2659      F2664   1.383       .  S
C2659      F2665   1.383       .  S
C2662      F2666   1.384   1_545  S
C2662      F2667   1.381       .  S
C2662      F2668   1.383   1_545  S
C2669      C2670   1.405       .  A
C2669      C2674   1.414       .  A
C2669      H2676   1.083       .  S
C2670      C2671   1.421       .  A
C2671      C2672   1.407       .  A
C2671      C2678   1.509       .  S
C2672      C2673   1.409       .  A
C2672      H2677   1.084       .  S
C2673      C2674   1.432       .  A
C2674      C2675   1.522       .  S
C2675      F2679   1.386       .  S
C2675      F2680   1.382       .  S
C2675      F2681   1.383       .  S
C2678      F2682   1.366       .  S
C2678      F2683   1.384       .  S
C2678      F2684   1.383       .  S
C2685      C2686   1.402       .  A
C2685      C2690   1.403       .  A
C2685      H2692   1.083       .  S
C2686      C2687   1.422       .  A
C2687      C2688   1.404       .  A
C2687      C2694   1.521       .  S
C2688      C2689   1.402       .  A
C2688      H2693   1.082       .  S
C2689      C2690   1.423       .  A
C2690      C3591   1.523       .  S
C2691      C3590   1.521       .  S
C2691      F2695   1.386       .  S
C2691      F2696   1.383       .  S
C2691      F3597   1.383       .  S
C2694      F2698   1.383       .  S
C2694      F2699   1.384       .  S
C2694      F2700   1.384       .  S
F2697      C3591   1.383       .  S
C2701      N2702   1.369   1_545  A
C2701      C3589   1.503   1_545  S
N2702      C2703   1.364       .  A
C2703      N2704   1.360   1_565  A
C2703      C3573   1.522       .  S
C2705      N2706   1.350       .  A
C2705      C2711   1.471       .  S
C2707      N2708   1.356       .  A
C2707      N2712   1.354       .  A
C2707      C3557   1.486       .  S
N2708      C2709   1.362       .  A
C2709      N2710   1.366       .  A
C2709      C3541   1.511       .  S
N2710      C2711   1.369       .  A
C2711      N2712   1.356       .  A
C2713      N2714   1.360       .  A
C2713      N2718   1.361       .  A
C2713      C3525   1.501       .  S
N2714      C2715   1.362       .  A
C2715      N2716   1.351       .  A
N2716      C2717   1.352       .  A
C2717      N2718   1.356       .  A
C2717      C2721   1.460       .  S
C2719      N2720   1.353       .  A
C2719      C3490   1.472       .  S
N2720      C2721   1.360       .  A
N2722      C2723   1.355   1_545  A
C2723      N2724   1.356   1_565  A
C2723      C3477   1.472       .  S
C2725      N2726   1.349       .  A
C2725      N2730   1.356       .  A
C2725      C3461   1.479       .  S
N2726      C2727   1.356       .  A
C2727      N2728   1.367       .  A
N2728      C2729   1.366       .  A
C2729      N2730   1.361       .  A
C2729      C2733   1.481       .  S
C2731      N2732   1.366       .  A
C2731      N2736   1.360       .  A
C2731      C3426   1.500       .  S
N2732      C2733   1.365       .  A
C2733      N2734   1.360       .  A
N2734      C2735   1.358       .  A
C2735      N2736   1.353       .  A
C2735      C3413   1.499       .  S
C2737      C3570   1.521       .  S
C2737      C2738   1.409       .  A
C2737      C2742   1.430       .  A
C2738      C3445   1.486       .  S
C2738      C2739   1.411       .  A
C2739      C3509   1.486       .  S
C2739      C2740   1.412       .  A
C2740      C3538   1.505       .  S
C2740      C2741   1.425       .  A
C2741      C3410   1.510       .  S
C2741      C2742   1.443       .  A
C2742      C3474   1.486       .  S
Zr2743     O2744   2.442       .  S
Zr2743     O2745   2.438       .  S
Zr2743     O2746   2.409       .  S
Zr2743     O2749   2.408       .  S
Zr2743     O2751   2.376       .  S
Zr2743     O2752   2.388       .  S
Zr2743     O2753   2.411       .  S
Zr2743     O2754   2.405       .  S
O2744      H2800   0.990       .  S
O2744      H2808   0.990       .  S
O2745      C2765   1.284       .  A
O2746      C2767   1.279       .  A
O2747     Zr2757   2.436       .  S
O2747      C2766   1.279       .  A
O2748     Zr2756   2.454       .  S
O2748      C2767   1.287       .  A
O2749      C2766   1.270       .  A
O2750     Zr2758   2.398       .  S
O2750      C2765   1.276       .  A
O2751     Zr2756   2.391       .  S
O2751     Zr2758   2.376       .  S
O2752     Zr2757   2.408       .  S
O2752     Zr2758   2.375       .  S
O2752      H2787   0.967       .  S
O2753     Zr2756   2.407       .  S
O2753     Zr2773   2.400       .  S
O2753      H2790   0.967       .  S
O2754     Zr2757   2.404       .  S
O2754     Zr2773   2.399       .  S
Zr2755     O2780   2.438       .  S
Zr2755     O2774   2.409       .  S
Zr2755     O2782   2.389       .  S
Zr2755     O2770   2.390       .  S
Zr2755     O2761   2.383       .  S
Zr2755     O2762   2.389       .  S
Zr2755     O2763   2.378       .  S
Zr2755     O2764   2.376       .  S
Zr2756     O2775   2.436       .  S
Zr2756     O2768   2.435       .  S
Zr2756     O2769   2.464       .  S
Zr2756     O2762   2.396       .  S
Zr2756     O2763   2.387       .  S
Zr2757     O2759   2.436       .  S
Zr2757     O2781   2.438       .  S
Zr2757     O2783   2.446       .  S
Zr2757     O2761   2.394       .  S
Zr2757     O2764   2.393       .  S
Zr2758     O2784   2.435       .  S
Zr2758     O2785   2.436       .  S
Zr2758     O2760   2.436       .  S
Zr2758     O2761   2.391       .  S
Zr2758     O2762   2.383       .  S
O2759      H2796   0.990       .  S
O2760      H2791   0.990       .  S
O2760      H2805   0.990       .  S
O2762      H2788   0.966       .  S
O2763     Zr2773   2.367       .  S
O2764     Zr2773   2.372       .  S
O2764      H2789   0.960       .  S
C2765      C3381   1.477       .  S
C2766      C3394   1.467       .  S
C2767      C3362   1.472       .  S
O2768      H2804   0.990       .  S
O2769      C2771   1.290       .  A
O2770      C2771   1.274       .  A
C2771      C3458   1.467       .  S
O2772     Zr2773   2.437       .  S
O2772      H2801   0.990       .  S
Zr2773     O2776   2.435       .  S
Zr2773     O2777   2.441       .  S
Zr2773     O2778   2.442       .  S
O2774      C2779   1.276       .  A
O2775      H2792   0.990       .  S
O2775      H2807   0.990       .  S
O2776      H2793   0.990       .  S
O2777      H2797   0.990       .  S
O2777      H2806   0.990       .  S
O2778      C2779   1.287       .  A
C2779      C3493   1.501       .  S
O2780      H2799   0.990       .  S
O2780      H2803   0.990       .  S
O2781      H2795   0.990       .  S
O2781      H2802   0.990       .  S
O2782      C2786   1.278       .  A
O2783      C2786   1.285       .  A
O2784      H2794   0.989       .  S
O2785      H2798   0.990       .  S
C2786      C3554   1.457       .  S
C2809      N2810   1.358       .  A
C2809      N2814   1.356       .  A
C2809      C3346   1.503       .  S
N2810      C2811   1.359       .  A
C2811      C2819   1.471       .  S
C2813      N2814   1.356       .  A
C2813      C3330   1.479       .  S
C2815      N2816   1.355       .  A
C2815      N2820   1.360       .  A
C2815      C3397   1.480       .  S
N2816      C2817   1.355       .  A
C2817      N2818   1.359       .  A
C2817      C3314   1.493       .  S
N2818      C2819   1.361       .  A
C2819      N2820   1.363       .  A
C2821      N2822   1.355       .  A
C2821      N2826   1.351       .  A
C2821      C3301   1.472       .  S
N2822      C2823   1.359       .  A
C2823      N2824   1.362       .  A
C2823      C2829   1.466       .  S
N2824      C2825   1.358       .  A
C2825      N2826   1.356       .  A
C2825      C3282   1.500       .  S
C2827      N2828   1.356       .  A
C2827      N2832   1.357       .  A
C2827      C3378   1.472       .  S
N2828      C2829   1.356       .  A
C2829      N2830   1.359       .  A
N2830      C2831   1.359       .  A
C2831      N2832   1.356       .  A
C2831      C3266   1.483       .  S
C2833      N2834   1.348       .  A
C2833      N2838   1.356       .  A
C2833      C3250   1.480       .  S
N2834      C2835   1.355       .  A
C2835      N2836   1.366       .  A
C2835      C2841   1.479       .  S
N2836      C2837   1.370       .  A
C2837      N2838   1.362       .  A
C2837      C3237   1.513       .  S
C2839      N2840   1.369       .  A
C2839      N2844   1.360       .  A
C2839      C3365   1.508       .  S
N2840      C2841   1.366       .  A
N2842      C2843   1.349       .  A
C2845      C2846   1.417       .  A
C2845      C2850   1.417       .  A
C2846      C3333   1.486       .  S
C2846      C2847   1.419       .  A
C2847      C3269   1.507       .  S
C2847      C2848   1.419       .  A
C2848      C3234   1.502       .  S
C2848      C2849   1.429       .  A
C2849      C2850   1.423       .  A
C2851      N2852   1.354       .  A
C2851      N2856   1.359       .  A
C2851      C3202   1.489       .  S
N2852      C2853   1.356       .  A
C2853      N2854   1.365       .  A
C2853      C2859   1.473       .  S
N2854      C2855   1.366       .  A
C2855      N2856   1.363       .  A
C2855      C3186   1.504       .  S
C2857      N2858   1.362       .  A
C2857      N2862   1.360       .  A
C2857      C3170   1.485       .  S
N2858      C2859   1.358       .  A
C2859      N2860   1.360       .  A
N2860      C2861   1.356       .  A
C2861      N2862   1.362       .  A
C2861      C3154   1.507       .  S
C2863      N2864   1.353       .  A
C2863      N2868   1.354       .  A
C2863      C3138   1.472       .  S
N2864      C2865   1.357       .  A
C2865      N2866   1.362       .  A
C2865      C2871   1.462       .  S
N2866      C2867   1.358       .  A
C2867      N2868   1.356       .  A
C2867      C3125   1.485       .  S
C2869      N2874   1.363       .  A
C2869      C3106   1.502       .  S
N2870      C2871   1.353       .  A
N2872      C2873   1.352       .  A
C2873      N2874   1.368       .  A
C2873      C3090   1.497       .  S
C2875      N2876   1.356       .  A
C2875      N2880   1.356       .  A
C2875      C3077   1.475       .  S
N2876      C2877   1.356       .  A
C2877      N2878   1.359       .  A
C2877      C3061   1.486       .  S
N2878      C2879   1.358       .  A
C2879      N2880   1.356       .  A
C2881      N2882   1.358       .  A
C2881      N2886   1.362       .  A
C2881      C3045   1.503       .  S
N2882      C2883   1.363       .  A
C2883      N2884   1.347       .  A
C2883      C3029   1.496       .  S
N2884      C2885   1.354       .  A
C2885      N2886   1.364       .  A
C2887      C3189   1.518       .  S
C2887      C2888   1.433       .  A
C2887      C2892   1.420       .  A
C2888      C3058   1.499       .  S
C2888      C2889   1.440       .  A
C2889      C3122   1.502       .  S
C2889      C2890   1.420       .  A
C2890      C3157   1.500       .  S
C2890      C2891   1.407       .  A
C2891      C3026   1.501       .  S
C2891      C2892   1.415       .  A
C2892      C3093   1.482       .  S
Zr2893     O2895   2.419       .  S
Zr2893     O2896   2.425       .  S
Zr2893     O2901   2.377       .  S
Zr2893     O2902   2.381       .  S
Zr2893     O2903   2.392   1_655  S
O2894      H2950   0.990   1_565  S
O2894      H2958   0.990   1_565  S
O2895      C2915   1.279       .  A
O2896      C2917   1.285       .  A
O2897     Zr2907   2.448       .  S
O2898     Zr2906   2.426       .  S
O2898      C2917   1.284       .  A
O2900     Zr2908   2.432       .  S
O2900      C2915   1.285       .  A
O2901     Zr2906   2.390       .  S
O2901     Zr2908   2.370       .  S
O2902     Zr2908   2.364       .  S
O2903     Zr2906   2.396   1_455  S
O2903      H2940   0.967       .  S
Zr2905     O2930   2.435       .  S
Zr2905     O2924   2.441       .  S
Zr2905     O2920   2.402       .  S
Zr2905     O2911   2.399   1_554  S
Zr2905     O2912   2.402   1_554  S
Zr2905     O2913   2.370   1_554  S
Zr2905     O2914   2.378   1_564  S
Zr2906     O2925   2.436   1_655  S
Zr2906     O2918   2.433       .  S
Zr2906     O2919   2.441   1_556  S
Zr2906     O2912   2.394       .  S
Zr2906     O2913   2.386       .  S
Zr2907     O2931   2.436       .  S
Zr2907     O2933   2.437   1_556  S
Zr2908     O2934   2.435       .  S
Zr2908     O2935   2.436       .  S
Zr2908     O2910   2.437       .  S
Zr2908     O2911   2.401       .  S
Zr2908     O2912   2.395       .  S
O2909      H2946   0.990       .  S
O2910      H2941   0.990       .  S
O2910      H2955   0.990       .  S
O2912      H2938   0.965       .  S
C2915      C3173   1.493       .  S
C2916      C3074   1.470       .  S
C2917      C3109   1.473       .  S
O2918      H2954   0.990       .  S
O2919      C2921   1.284       .  A
O2920      C2921   1.278       .  A
C2921      C3429   1.463       .  S
O2922     Zr2923   2.438   1_545  S
O2922      H2951   0.990       .  S
Zr2923     O2926   2.435       .  S
Zr2923     O2928   2.424   1_556  S
O2925      H2942   0.990       .  S
O2925      H2957   0.990   1_455  S
O2926      H2943   0.989       .  S
O2927      H2947   0.990       .  S
O2927      H2956   0.990       .  S
O2928      C2929   1.282       .  A
C2929      C3586   1.485       .  S
O2930      H2949   0.989       .  S
O2930      H2953   0.990       .  S
O2931      H2945   0.990       .  S
O2931      H2952   0.990       .  S
O2932      C2936   1.281       .  A
O2933      C2936   1.285       .  A
O2934      H2944   0.991       .  S
O2935      H2948   0.989   1_556  S
C2936      C3522   1.466       .  S
Zr2959     O2960   2.440       .  S
Zr2959     O2961   2.409       .  S
Zr2959     O2962   2.398       .  S
Zr2959     O2965   2.389       .  S
Zr2959     O2967   2.377       .  S
Zr2959     O2968   2.381       .  S
Zr2959     O2969   2.389       .  S
Zr2959     O2970   2.391       .  S
O2960      H3016   0.991       .  S
O2960      H3024   0.990       .  S
O2961      C2981   1.280       .  A
O2962      C2983   1.277       .  A
O2963     Zr2973   2.441       .  S
O2963      C2982   1.285       .  A
O2964     Zr2972   2.448       .  S
O2964      C2983   1.285       .  A
O2965      C2982   1.276       .  A
O2966     Zr2974   2.437       .  S
O2966      C2981   1.282       .  A
O2967     Zr2972   2.395       .  S
O2967     Zr2974   2.378       .  S
O2968     Zr2973   2.392       .  S
O2968     Zr2974   2.360       .  S
O2968      H3003   0.968       .  S
O2969     Zr2972   2.402       .  S
O2969     Zr2989   2.389       .  S
O2969      H3006   0.966       .  S
O2970     Zr2973   2.405       .  S
O2970     Zr2989   2.392       .  S
Zr2971     O2996   2.440       .  S
Zr2971     O2990   2.429       .  S
Zr2971     O2998   2.398       .  S
Zr2971     O2986   2.402       .  S
Zr2971     O2977   2.397       .  S
Zr2971     O2978   2.396       .  S
Zr2971     O2979   2.375       .  S
Zr2971     O2980   2.375       .  S
Zr2972     O2991   2.434       .  S
Zr2972     O2984   2.435       .  S
Zr2972     O2985   2.457       .  S
Zr2972     O2978   2.402       .  S
Zr2972     O2979   2.395       .  S
Zr2973     O2975   2.434       .  S
Zr2973     O2997   2.438       .  S
Zr2973     O2999   2.458       .  S
Zr2973     O2977   2.397       .  S
Zr2973     O2980   2.388       .  S
Zr2974     O3000   2.438       .  S
Zr2974     O3001   2.437       .  S
Zr2974     O2976   2.439       .  S
Zr2974     O2977   2.399       .  S
Zr2974     O2978   2.403       .  S
O2975      H3012   0.990       .  S
O2976      H3007   0.990       .  S
O2976      H3021   0.990       .  S
O2978      H3004   0.965       .  S
O2979     Zr2989   2.381       .  S
O2980     Zr2989   2.365       .  S
O2980      H3005   0.964       .  S
C2981      C3141   1.492       .  S
C2982      C3042   1.458       .  S
C2983      C3205   1.465       .  S
O2984      H3020   0.990       .  S
O2985      C2987   1.288       .  A
O2986      C2987   1.281       .  A
C2987      C3349   1.481       .  S
O2988     Zr2989   2.436       .  S
O2988      H3017   0.990       .  S
Zr2989     O2992   2.434       .  S
Zr2989     O2993   2.439       .  S
Zr2989     O2994   2.414       .  S
O2990      C2995   1.282       .  A
O2991      H3008   0.989       .  S
O2991      H3023   0.990       .  S
O2992      H3009   0.990       .  S
O2993      H3013   0.990       .  S
O2993      H3022   0.990       .  S
O2994      C2995   1.282       .  A
C2995      C3298   1.484       .  S
O2996      H3015   0.991       .  S
O2996      H3019   0.990       .  S
O2997      H3018   0.990       .  S
O2998      C3002   1.278       .  A
O2999      C3002   1.288       .  A
O3000      H3010   0.990       .  S
O3001      H3014   0.990       .  S
C3002      C3253   1.470       .  S
C3025      C3026   1.407       .  A
C3025      C3030   1.417       .  A
C3025      H3032   1.082       .  S
C3026      C3027   1.421       .  A
C3027      C3028   1.393       .  A
C3027      C3034   1.516       .  S
C3028      C3029   1.397       .  A
C3028      H3033   1.083       .  S
C3029      C3030   1.429       .  A
C3030      C3031   1.521       .  S
C3031      F3035   1.383       .  S
C3031      F3036   1.383       .  S
C3031      F3037   1.385       .  S
C3034      F3038   1.383       .  S
C3034      F3039   1.384       .  S
C3034      F3040   1.374       .  S
C3041      C3042   1.396       .  A
C3042      C3043   1.409       .  A
C3043      C3044   1.403       .  A
C3043      C3050   1.517       .  S
C3044      H3049   1.083       .  S
C3045      C3046   1.429       .  A
C3046      C3047   1.519       .  S
C3047      F3051   1.384       .  S
C3047      F3052   1.383       .  S
C3047      F3053   1.380       .  S
C3050      F3054   1.382       .  S
C3050      F3055   1.383       .  S
C3050      F3056   1.384       .  S
C3057      C3058   1.405       .  A
C3057      C3062   1.400       .  A
C3057      H3064   1.083       .  S
C3058      C3059   1.426       .  A
C3059      C3060   1.407       .  A
C3059      C3066   1.515       .  S
C3060      C3061   1.404       .  A
C3060      H3065   1.084       .  S
C3061      C3062   1.418       .  A
C3062      C3063   1.521       .  S
C3063      F3067   1.385       .  S
C3063      F3068   1.384       .  S
C3063      F3069   1.380       .  S
C3066      F3070   1.372       .  S
C3066      F3071   1.384       .  S
C3066      F3072   1.383       .  S
C3073      C3074   1.402       .  A
C3073      C3078   1.408       .  A
C3073      H3080   1.084       .  S
C3074      C3075   1.415       .  A
C3075      C3076   1.400       .  A
C3076      C3077   1.402       .  A
C3076      H3081   1.084       .  S
C3077      C3078   1.420       .  A
C3078      C3079   1.519       .  S
C3079      F3083   1.383       .  S
C3079      F3084   1.382       .  S
C3079      F3085   1.383       .  S
C3082      F3086   1.382       .  S
C3082      F3087   1.383       .  S
C3082      F3088   1.385       .  S
C3089      C3090   1.404       .  A
C3089      C3094   1.398       .  A
C3089      H3096   1.076       .  S
C3090      C3091   1.431       .  A
C3091      C3092   1.404       .  A
C3091      C3098   1.522       .  S
C3092      C3093   1.397       .  A
C3092      H3097   1.082       .  S
C3093      C3094   1.417       .  A
C3094      C3095   1.523       .  S
C3095      F3099   1.384       .  S
C3095      F3100   1.377       .  S
C3095      F3101   1.384       .  S
C3098      F3102   1.385       .  S
C3098      F3103   1.382       .  S
C3098      F3104   1.383       .  S
C3105      C3106   1.410   1_455  A
C3105      C3110   1.397       .  A
C3106      C3107   1.428       .  A
C3107      C3108   1.410       .  A
C3107      C3114   1.515       .  S
C3108      C3109   1.401       .  A
C3108      H3113   1.084       .  S
C3109      C3110   1.410   1_655  A
C3111      F3115   1.384       .  S
C3111      F3116   1.384       .  S
C3111      F3117   1.381       .  S
C3114      F3118   1.383       .  S
C3114      F3119   1.378       .  S
C3114      F3120   1.386       .  S
C3121      C3122   1.411       .  A
C3121      H3128   1.082       .  S
C3122      C3123   1.420       .  A
C3123      C3124   1.400       .  A
C3123      C3130   1.516       .  S
C3124      H3129   1.085       .  S
C3125      C3126   1.418       .  A
C3126      C3127   1.519       .  S
C3127      F3131   1.384       .  S
C3127      F3132   1.384       .  S
C3127      F3133   1.381       .  S
C3130      F3134   1.373       .  S
C3130      F3135   1.382       .  S
C3130      F3136   1.384       .  S
C3137      C3138   1.398       .  A
C3137      C3142   1.402       .  A
C3137      H3144   1.083       .  S
C3138      C3139   1.413       .  A
C3139      C3140   1.409       .  A
C3139      C3146   1.520       .  S
C3140      C3141   1.413       .  A
C3140      H3145   1.083       .  S
C3141      C3142   1.424       .  A
C3142      C3143   1.521       .  S
C3143      F3147   1.384       .  S
C3143      F3148   1.382       .  S
C3143      F3149   1.384       .  S
C3146      F3150   1.381       .  S
C3146      F3151   1.384       .  S
C3146      F3152   1.384       .  S
C3153      C3158   1.401       .  A
C3153      H3160   1.083       .  S
C3154      C3155   1.430       .  A
C3155      C3162   1.517       .  S
C3156      C3157   1.400       .  A
C3156      H3161   1.082       .  S
C3157      C3158   1.418       .  A
C3158      C3159   1.518       .  S
C3159      F3163   1.384       .  S
C3159      F3164   1.378       .  S
C3159      F3165   1.383       .  S
C3162      F3166   1.383       .  S
C3162      F3167   1.383       .  S
C3162      F3168   1.383       .  S
C3169      C3170   1.404       .  A
C3169      C3174   1.411       .  A
C3169      H3176   1.083       .  S
C3170      C3171   1.417       .  A
C3171      C3172   1.402       .  A
C3172      C3173   1.406       .  A
C3173      C3174   1.425       .  A
C3174      C3175   1.521       .  S
C3175      F3179   1.385       .  S
C3175      F3180   1.383       .  S
C3175      F3181   1.383       .  S
C3178      F3182   1.381       .  S
C3178      F3184   1.385       .  S
C3185      C3186   1.403       .  A
C3185      C3190   1.407       .  A
C3185      H3192   1.083       .  S
C3186      C3187   1.422       .  A
C3187      C3188   1.418       .  A
C3187      C3194   1.517       .  S
C3188      C3189   1.410       .  A
C3188      H3193   1.081       .  S
C3189      C3190   1.429       .  A
C3190      C3191   1.522       .  S
C3191      F3195   1.384       .  S
C3191      F3196   1.377       .  S
C3191      F3197   1.384       .  S
C3194      F3198   1.384       .  S
C3194      F3199   1.383       .  S
C3194      F3200   1.384       .  S
C3201      C3202   1.409       .  A
C3201      C3206   1.405       .  A
C3201      H3208   1.083       .  S
C3202      C3203   1.421       .  A
C3203      C3204   1.406       .  A
C3203      C3210   1.516       .  S
C3204      C3205   1.399       .  A
C3204      H3209   1.084       .  S
C3205      C3206   1.410       .  A
C3206      C3207   1.515       .  S
C3207      F3211   1.382       .  S
C3207      F3212   1.384       .  S
C3207      F3213   1.381       .  S
C3210      F3214   1.382       .  S
C3210      F3215   1.384       .  S
C3210      F3216   1.385       .  S
C3217      C3218   1.402       .  A
C3217      C3222   1.405       .  A
C3217      H3224   1.079       .  S
C3218      C3219   1.421       .  A
C3219      C3220   1.403       .  A
C3219      C3226   1.521       .  S
C3220      C3221   1.403       .  A
C3220      H3225   1.085       .  S
C3221      C3222   1.419       .  A
C3223      F3229   1.379       .  S
C3226      F3231   1.383   1_655  S
C3226      F3232   1.383       .  S
C3233      C3234   1.401       .  A
C3233      C3238   1.406       .  A
C3233      H3240   1.081       .  S
C3234      C3235   1.418       .  A
C3235      C3236   1.407       .  A
C3236      C3237   1.413       .  A
C3236      H3241   1.083       .  S
C3237      C3238   1.425       .  A
C3238      C3239   1.506       .  S
C3239      F3243   1.382       .  S
C3239      F3244   1.377       .  S
C3239      F3245   1.385       .  S
C3242      F3246   1.377       .  S
C3242      F3247   1.382       .  S
C3242      F3248   1.384       .  S
C3249      C3250   1.405       .  A
C3249      C3254   1.404       .  A
C3249      H3256   1.083       .  S
C3250      C3251   1.421   1_655  A
C3251      C3258   1.523       .  S
C3252      C3253   1.400       .  A
C3252      H3257   1.084       .  S
C3254      C3255   1.517       .  S
C3255      F3259   1.385       .  S
C3255      F3261   1.383       .  S
C3258      F3263   1.381       .  S
C3265      C3266   1.401       .  A
C3265      C3270   1.405       .  A
C3265      H3272   1.085       .  S
C3266      C3267   1.417       .  A
C3267      C3268   1.406       .  A
C3267      C3274   1.520       .  S
C3268      C3269   1.406       .  A
C3268      H3273   1.079       .  S
C3269      C3270   1.424       .  A
C3270      C3271   1.513       .  S
C3271      F3275   1.383       .  S
C3271      F3276   1.375       .  S
C3271      F3277   1.383       .  S
C3274      F3278   1.383       .  S
C3274      F3279   1.382       .  S
C3274      F3280   1.385       .  S
C3281      C3282   1.411       .  A
C3281      C3286   1.398       .  A
C3281      H3288   1.083       .  S
C3282      C3283   1.427       .  A
C3283      C3284   1.409       .  A
C3283      C3290   1.519       .  S
C3284      C3285   1.401       .  A
C3284      H3289   1.081       .  S
C3285      C3286   1.418       .  A
C3287      F3291   1.383       .  S
C3287      F3292   1.384       .  S
C3287      F3293   1.380       .  S
C3290      F3294   1.384       .  S
C3290      F3295   1.382       .  S
C3290      F3296   1.384       .  S
C3297      C3298   1.406       .  A
C3297      C3302   1.400       .  A
C3297      H3304   1.083       .  S
C3298      C3299   1.421       .  A
C3299      C3300   1.409       .  A
C3299      C3306   1.519       .  S
C3300      C3301   1.402       .  A
C3300      H3305   1.083       .  S
C3301      C3302   1.416       .  A
C3302      C3303   1.523       .  S
C3303      F3307   1.385       .  S
C3303      F3308   1.384       .  S
C3303      F3309   1.381       .  S
C3306      F3310   1.384       .  S
C3306      F3311   1.382       .  S
C3306      F3312   1.384       .  S
C3313      C3314   1.406       .  A
C3313      C3318   1.409       .  A
C3313      H3320   1.084       .  S
C3314      C3315   1.420       .  A
C3315      C3316   1.404       .  A
C3315      C3322   1.521       .  S
C3316      C3317   1.405       .  A
C3317      C3318   1.424       .  A
C3319      F3323   1.382       .  S
C3319      F3324   1.375       .  S
C3319      F3325   1.383       .  S
C3322      F3326   1.384       .  S
C3322      F3327   1.383       .  S
C3329      C3334   1.411       .  A
C3329      H3336   1.083       .  S
C3330      C3331   1.419       .  A
C3331      C3332   1.390       .  A
C3331      C3338   1.515       .  S
C3332      C3333   1.395       .  A
C3332      H3337   1.081       .  S
C3334      C3335   1.515       .  S
C3335      F3339   1.383       .  S
C3335      F3340   1.377       .  S
C3335      F3341   1.383       .  S
C3338      F3342   1.381       .  S
C3338      F3343   1.379       .  S
C3338      F3344   1.383       .  S
C3345      C3346   1.413       .  A
C3345      C3350   1.408       .  A
C3345      H3352   1.078       .  S
C3346      C3347   1.425       .  A
C3347      C3348   1.407       .  A
C3347      C3354   1.519       .  S
C3348      C3349   1.403       .  A
C3348      H3353   1.084       .  S
C3349      C3350   1.412       .  A
C3350      C3351   1.518       .  S
C3351      F3355   1.384       .  S
C3351      F3356   1.383       .  S
C3351      F3357   1.382       .  S
C3354      F3358   1.383       .  S
C3354      F3359   1.384   1_565  S
C3354      F3360   1.384       .  S
C3361      C3362   1.399       .  A
C3361      C3366   1.412       .  A
C3361      H3368   1.083       .  S
C3362      C3363   1.410       .  A
C3363      C3364   1.401       .  A
C3363      C3370   1.516       .  S
C3364      C3365   1.412       .  A
C3364      H3369   1.084       .  S
C3365      C3366   1.426       .  A
C3366      C3367   1.507       .  S
C3367      F3371   1.385       .  S
C3367      F3372   1.381       .  S
C3367      F3373   1.380       .  S
C3370      F3374   1.383       .  S
C3370      F3375   1.383       .  S
C3370      F3376   1.384       .  S
C3377      C3378   1.400       .  A
C3377      C3382   1.404       .  A
C3377      H3384   1.084       .  S
C3378      C3379   1.415       .  A
C3379      C3380   1.405       .  A
C3379      C3386   1.518       .  S
C3380      C3381   1.404       .  A
C3380      H3385   1.083       .  S
C3381      C3382   1.422       .  A
C3382      C3383   1.521       .  S
C3383      F3387   1.384       .  S
C3383      F3388   1.384       .  S
C3383      F3389   1.383       .  S
C3386      F3390   1.383       .  S
C3386      F3391   1.382       .  S
C3386      F3392   1.384       .  S
C3393      C3398   1.404       .  A
C3393      H3400   1.084       .  S
C3394      C3395   1.411       .  A
C3395      C3396   1.408       .  A
C3395      C3402   1.514       .  S
C3396      H3401   1.083       .  S
C3397      C3398   1.417   1_565  A
C3398      C3399   1.519       .  S
C3399      F3403   1.383       .  S
C3399      F3404   1.384       .  S
C3399      F3405   1.381       .  S
C3402      F3406   1.382       .  S
C3402      F3407   1.384       .  S
C3402      F3408   1.384       .  S
C3409      C3410   1.405       .  A
C3409      C3414   1.408       .  A
C3409      H3416   1.082       .  S
C3410      C3411   1.428       .  A
C3411      C3412   1.407       .  A
C3411      C3418   1.514       .  S
C3412      C3413   1.404       .  A
C3412      H3417   1.085       .  S
C3413      C3414   1.425       .  A
C3414      C3415   1.521       .  S
C3415      F3419   1.385       .  S
C3415      F3420   1.382       .  S
C3415      F3421   1.384       .  S
C3418      F3422   1.383       .  S
C3418      F3423   1.370       .  S
C3418      F3424   1.384       .  S
C3425      C3426   1.411       .  A
C3425      C3430   1.405       .  A
C3425      H3432   1.082       .  S
C3426      C3427   1.424       .  A
C3427      C3428   1.405       .  A
C3427      C3434   1.506       .  S
C3428      C3429   1.395       .  A
C3428      H3433   1.084       .  S
C3429      C3430   1.409       .  A
C3430      C3431   1.518       .  S
C3431      F3435   1.385       .  S
C3431      F3436   1.383       .  S
C3431      F3437   1.382       .  S
C3434      F3438   1.380       .  S
C3434      F3439   1.383       .  S
C3434      F3440   1.386   1_655  S
C3441      C3442   1.411       .  A
C3441      C3446   1.401       .  A
C3441      H3448   1.084       .  S
C3442      C3443   1.423       .  A
C3443      C3444   1.401       .  A
C3443      C3450   1.503       .  S
C3444      C3445   1.396       .  A
C3444      H3449   1.082       .  S
C3445      C3446   1.416       .  A
C3446      C3447   1.519       .  S
C3447      F3451   1.384       .  S
C3447      F3452   1.376       .  S
C3447      F3453   1.384       .  S
C3450      F3454   1.380       .  S
C3450      F3455   1.384       .  S
C3450      F3456   1.385       .  S
C3457      C3458   1.397       .  A
C3457      C3462   1.401       .  A
C3457      H3464   1.084       .  S
C3458      C3459   1.415       .  A
C3459      C3460   1.408       .  A
C3459      C3466   1.516       .  S
C3460      C3461   1.404       .  A
C3460      H3465   1.083       .  S
C3461      C3462   1.420       .  A
C3462      C3463   1.515       .  S
C3463      F3467   1.385       .  S
C3463      F3468   1.381       .  S
C3463      F3469   1.383       .  S
C3466      F3470   1.383       .  S
C3466      F3471   1.382       .  S
C3466      F3472   1.385       .  S
C3473      C3474   1.406       .  A
C3473      C3478   1.406       .  A
C3473      H3480   1.082       .  S
C3474      C3475   1.421       .  A
C3475      C3476   1.394       .  A
C3475      C3482   1.518       .  S
C3476      C3477   1.397       .  A
C3476      H3481   1.084       .  S
C3477      C3478   1.415       .  A
C3478      C3479   1.517       .  S
C3479      F3483   1.385       .  S
C3479      F3484   1.382       .  S
C3479      F3485   1.384   1_565  S
C3482      F3486   1.382       .  S
C3482      F3487   1.376       .  S
C3482      F3488   1.385       .  S
C3489      C3490   1.396       .  A
C3489      C3494   1.409       .  A
C3489      H3496   1.083       .  S
C3490      C3491   1.408       .  A
C3491      C3492   1.406       .  A
C3492      C3493   1.412       .  A
C3492      H3497   1.082       .  S
C3493      C3494   1.434       .  A
C3494      C3495   1.524       .  S
C3495      F3499   1.384       .  S
C3495      F3500   1.384       .  S
C3495      F3501   1.383       .  S
C3498      F3502   1.384       .  S
C3498      F3503   1.381   1_545  S
C3498      F3504   1.385       .  S
C3505      C3506   1.409       .  A
C3505      C3510   1.396       .  A
C3505      H3512   1.079       .  S
C3506      C3507   1.427       .  A
C3507      C3508   1.409       .  A
C3508      C3509   1.400       .  A
C3508      H3513   1.080       .  S
C3509      C3510   1.416       .  A
C3510      C3511   1.525       .  S
C3511      F3515   1.385       .  S
C3511      F3516   1.384       .  S
C3511      F3517   1.379       .  S
C3514      F3518   1.380   1_455  S
C3514      F3519   1.384   1_455  S
C3514      F3520   1.382       .  S
C3521      C3522   1.393       .  A
C3521      C3526   1.405       .  A
C3522      C3523   1.408       .  A
C3523      C3524   1.406       .  A
C3524      C3525   1.414       .  A
C3524      H3529   1.082       .  S
C3525      C3526   1.431       .  A
C3527      F3531   1.385       .  S
C3527      F3532   1.383       .  S
C3530      F3534   1.382   1_545  S
C3530      F3535   1.383   1_545  S
C3530      F3536   1.385       .  S
C3537      C3538   1.409       .  A
C3537      C3542   1.421       .  A
C3537      H3544   1.082       .  S
C3538      C3539   1.422       .  A
C3539      C3540   1.399       .  A
C3539      C3546   1.525       .  S
C3540      C3541   1.405       .  A
C3540      H3545   1.078       .  S
C3541      C3542   1.426       .  A
C3542      C3543   1.517       .  S
C3543      F3547   1.385       .  S
C3543      F3548   1.383       .  S
C3543      F3549   1.383       .  S
C3546      F3550   1.382       .  S
C3546      F3551   1.378       .  S
C3546      F3552   1.384       .  S
C3553      C3554   1.395       .  A
C3553      C3558   1.399       .  A
C3553      H3560   1.085       .  S
C3554      C3555   1.410       .  A
C3555      C3556   1.406       .  A
C3555      C3562   1.516       .  S
C3556      C3557   1.408       .  A
C3556      H3561   1.083       .  S
C3557      C3558   1.422       .  A
C3558      C3559   1.513       .  S
C3559      F3563   1.385       .  S
C3559      F3564   1.383       .  S
C3559      F3565   1.382       .  S
C3562      F3566   1.383       .  S
C3562      F3567   1.382       .  S
C3562      F3568   1.384       .  S
C3569      C3570   1.408       .  A
C3569      C3574   1.416       .  A
C3569      H3576   1.083       .  S
C3570      C3571   1.421       .  A
C3571      C3572   1.413       .  A
C3571      C3578   1.512       .  S
C3572      C3573   1.414       .  A
C3572      H3577   1.084       .  S
C3573      C3574   1.428       .  A
C3574      C3575   1.518       .  S
C3575      F3579   1.385       .  S
C3575      F3580   1.383       .  S
C3575      F3581   1.383       .  S
C3578      F3582   1.371       .  S
C3578      F3583   1.383       .  S
C3578      F3584   1.384       .  S
C3585      C3586   1.402   1_545  A
C3585      C3590   1.412       .  A
C3585      H3592   1.084       .  S
C3586      C3587   1.415       .  A
C3587      C3588   1.408       .  A
C3587      C3594   1.519       .  S
C3588      C3589   1.408       .  A
C3588      H3593   1.080       .  S
C3589      C3590   1.430   1_565  A
C3591      F3595   1.385       .  S
C3591      F3596   1.382       .  S
C3594      F3598   1.382       .  S
C3594      F3599   1.384       .  S
C3594      F3600   1.384       .  S
