geometry optimzed in LAMMPS
_audit_creation_date              2020-11-30 
_audit_creation_method            'lammps2cif' 
_symmetry_space_group_name_H-M    'P1' 
_symmetry_Int_Tables_number       1 
_symmetry_cell_setting            triclinic 
loop_ 
_symmetry_equiv_pos_as_xyz 
  x,y,z 
_cell_length_a                    31.01334563 
_cell_length_b                    31.541986279223266 
_cell_length_c                    31.412952849787377 
_cell_angle_alpha                 89.97943337107569 
_cell_angle_beta                  89.77866305685231 
_cell_angle_gamma                 90.12363107979324 
loop_ 
_atom_site_label 
_atom_site_type_symbol 
_atom_site_fract_x 
_atom_site_fract_y 
_atom_site_fract_z 
_atom_site_charge 
C1          C  0.53671604  0.97241439  0.28085568     0.02600
C2          C  0.54045898  0.01641827  0.95616929     0.02500
C3          C  0.50271281  0.04067244  0.96097931    -0.18000
C4          C  0.46180327  0.02152501  0.95839751     0.02600
C5          C  0.45867381  0.97804966  0.28054191     0.02500
C6          C  0.49609979  0.95378140  0.27671722    -0.18000
H7          H  0.49366040  0.92038623  0.26901045     0.04600
H8          H  0.50519482  0.07405584  0.96858887     0.04600
C9          C  0.81441682  0.86800778  0.27975142     0.86800
C10         C  0.83559310  0.88849769  0.31859207    -0.53500
C11         C  0.87919695  0.88263293  0.32041373     0.09700
C12         C  0.89763396  0.85627974  0.28310376     0.20600
C13         C  0.83922788  0.88634592  0.24174392    -0.54200
C14         C  0.88266305  0.88072321  0.24349828     0.09800
C15         C  0.82723828  0.82128312  0.28143581    -0.53700
C16         C  0.87076755  0.81480711  0.28285272     0.10400
H17         H  0.81783512  0.90713655  0.34182675     0.14900
H18         H  0.93309360  0.85186174  0.28452175     0.00600
H19         H  0.82399530  0.90392766  0.21616017     0.15200
H20         H  0.80389349  0.79558280  0.28045852     0.14400
C21         C  0.91087246  0.90255977  0.21276801     0.42700
N22         N  0.92713477  0.94497463  0.16197848     0.01600
C23         C  0.10915979  0.94432611  0.36662981    -0.06300
H24         H  0.14034191  0.95798135  0.19701494     0.07100
C25         C  0.05422775  0.09906757  0.19366087    -0.06600
Co26       Co  0.00486070  0.91811361  0.11296021     0.74200
N27         N  0.08335260  0.94915974  0.15838656    -0.25800
Co28       Co  0.08230700  0.99823410  0.11327904     0.74100
C29         C  0.09479203  0.08675560  0.21322289     0.42800
N30         N  0.95271854  0.06942482  0.16394259     0.01200
N31         N  0.08056453  0.04443231  0.16148063     0.01300
N32         N  0.05766642  0.89348359  0.36912079    -0.46600
H33         H  0.96933146  0.85970793  0.19861240     0.07100
N34         N  0.05383187  0.91891409  0.15744169     0.01600
N35         N  0.07881220  0.04693238  0.06774263     0.01400
C36         C  0.09227294  0.09199774  0.35150131     0.43000
N37         N  0.92311960  0.03935746  0.16447389    -0.25200
C38         C  0.94712163  0.89011273  0.37012910    -0.06200
N39         N  0.89824794  0.93772011  0.19200584    -0.46400
N40         N  0.10706647  0.05633244  0.37046568    -0.46600
C41         C  0.90581684  0.90375117  0.35294402     0.42700
N42         N  0.05154180  0.92218726  0.06565340     0.01600
N43         N  0.92120476  0.04112596  0.07118238    -0.25300
N44         N  0.95793575  0.91616543  0.16098045    -0.25800
N45         N  0.95056682  0.07148425  0.07168502     0.01200
H46         H  0.86348781  0.03182124  0.36700949     0.07100
H47         H  0.03208328  0.13119631  0.36822826     0.07200
N48         N  0.08143811  0.95209462  0.06545509    -0.25800
N49         N  0.04825647  0.07160476  0.16207659    -0.25400
N50         N  0.92419831  0.94611871  0.06972004     0.01600
C51         C  0.09659650  0.89950131  0.20681217     0.43000
C52         C  0.89515404  0.04759493  0.19640535    -0.06700
N53         N  0.04683443  0.07443136  0.06978159    -0.25400
H54         H  0.03362588  0.12578114  0.20072307     0.07200
N55         N  0.06081154  0.88853377  0.18546891    -0.46600
H56         H  0.86631225  0.02963368  0.20369705     0.07100
C57         C  0.90663937  0.09048012  0.35606004     0.42800
C58         C  0.95059544  0.88789580  0.19238495    -0.06200
Co59       Co  0.92312602  0.99274367  0.11680180     0.73800
N60         N  0.94615789  0.09879082  0.19319913    -0.46400
C61         C  0.09306578  0.90531340  0.34720872     0.43100
N62         N  0.89344721  0.93843108  0.37497974    -0.46400
Co63       Co  0.99964198  0.07219214  0.11681723     0.73900
C64         C  0.05253361  0.10392162  0.37313885    -0.06700
C65         C  0.11176971  0.93988526  0.18928824    -0.06200
N66         N  0.95560120  0.91799205  0.06801387    -0.25800
N67         N  0.10981762  0.05275424  0.19134890    -0.46500
H68         H  0.13808557  0.96220788  0.35951451     0.07100
C69         C  0.89216988  0.05004565  0.37400990    -0.06700
Cl70       Cl  0.00248692  0.99532567  0.11490752    -0.49700
C71         C  0.91071854  0.08723665  0.21526958     0.42900
H72         H  0.96610992  0.86248419  0.36234471     0.07100
N73         N  0.94276602  0.10175157  0.04365747    -0.46400
C74         C  0.87623836  0.18249141  0.28262592     0.86800
C75         C  0.89325583  0.16026512  0.32265496    -0.53500
C76         C  0.88608312  0.11752851  0.32354356     0.09700
C77         C  0.86136974  0.10086786  0.28444325     0.20600
C78         C  0.89719429  0.15824906  0.24584888    -0.54200
C79         C  0.88955166  0.11551996  0.24646986     0.09800
C80         C  0.82837774  0.17106053  0.28069192    -0.53700
C81         C  0.82022739  0.12846574  0.28199572     0.10400
H82         H  0.91134394  0.17653910  0.34730139     0.14900
H83         H  0.85527021  0.06616004  0.28515253     0.00600
H84         H  0.91716322  0.17356123  0.22184118     0.15200
H85         H  0.80311460  0.19482468  0.27963883     0.15000
C86         C  0.12657176  0.80909589  0.28222415     0.86800
C87         C  0.10739812  0.83412276  0.31928153    -0.53500
C88         C  0.11462595  0.87670300  0.31707730     0.09700
C89         C  0.14140804  0.89050564  0.27804021     0.20600
C90         C  0.10779195  0.83027232  0.24248563    -0.54200
C91         C  0.11563899  0.87293128  0.24023387     0.09800
C92         C  0.17441402  0.82041569  0.28193811    -0.53700
C93         C  0.18235294  0.86296233  0.27967745     0.10400
H94         H  0.08825444  0.81966253  0.34445044     0.14900
H95         H  0.14750039  0.92518990  0.27642122     0.00600
H96         H  0.08908560  0.81322073  0.21883337     0.15200
H97         H  0.19971546  0.79669277  0.28286863     0.15000
C98         C  0.12869786  0.18247466  0.27848074     0.86800
C99         C  0.11252876  0.15743400  0.24015039    -0.53500
C100        C  0.11934144  0.11476957  0.24231133     0.09700
C101        C  0.14379346  0.10106134  0.28300775     0.20600
C102        C  0.10772684  0.16085906  0.31689970    -0.54200
C103        C  0.11511751  0.11821813  0.31945117     0.09800
C104        C  0.17639985  0.17197088  0.28128364    -0.53700
C105        C  0.18482557  0.12952582  0.28387455     0.10400
H106        H  0.09474394  0.17203141  0.21430924     0.14900
H107        H  0.15006271  0.06645851  0.28490275     0.00600
H108        H  0.08751728  0.17788894  0.33941208     0.15200
H109        H  0.20132623  0.19619508  0.28195143     0.15000
C110        C  0.02576724  0.53421766  0.28293533     0.02600
C111        C  0.98066840  0.53839683  0.27645218     0.02500
C112        C  0.95545694  0.50135338  0.27263643    -0.18000
C113        C  0.97474922  0.46115761  0.27390804     0.02600
C114        C  0.02009236  0.45783298  0.27709527     0.02500
C115        C  0.04500799  0.49427575  0.28239174    -0.18000
H116        H  0.07964118  0.49157271  0.28594609     0.04600
H117        H  0.92081756  0.50355851  0.26933207     0.04600
C118        C  0.08818600  0.28441599  0.25600792     0.30000
C119        C  0.06151743  0.31328433  0.23511613    -0.36300
C120        C  0.05846127  0.35338195  0.25360408     0.16000
C121        C  0.08047937  0.36472414  0.28999277     0.21800
C122        C  0.10753485  0.33576714  0.31086158    -0.34400
C123        C  0.11019697  0.29523834  0.29255312     0.15900
O124        O  0.09309830  0.24443931  0.24560018    -0.26400
C125        C  0.11843373  0.22896989  0.27583878     0.05700
C126        C  0.13028599  0.25920778  0.30595791    -0.31300
O127        O  0.07091508  0.40345419  0.30273327    -0.23100
C128        C  0.04210209  0.41654616  0.27431657    -0.03100
C129        C  0.03357289  0.38688450  0.24282721    -0.17600
H130        H  0.04317365  0.30456382  0.20712863     0.20400
H131        H  0.12414444  0.34380863  0.34006234     0.18800
H132        H  0.14937094  0.25472130  0.33439546     0.18700
H133        H  0.01135299  0.38932872  0.21642262     0.14600
C134        C  0.08970370  0.62442667  0.27326116     0.30000
C135        C  0.11137897  0.65577202  0.24984580    -0.36300
C136        C  0.11370908  0.69579658  0.26892121     0.16000
C137        C  0.09609849  0.70428151  0.30841331     0.21800
C138        C  0.07538670  0.67272598  0.99898686    -0.34400
C139        C  0.07288624  0.63275309  0.31319368     0.15900
O140        O  0.07806912  0.58698691  0.25877415    -0.26400
C141        C  0.05368046  0.57119319  0.28981451     0.05700
C142        C  0.04983661  0.59790603  0.99145566    -0.31300
O143        O  0.09855506  0.74464178  0.31849609    -0.23100
C144        C  0.11811059  0.76231093  0.28513578    -0.03100
C145        C  0.12867908  0.73334655  0.25345089    -0.17600
H146        H  0.12323746  0.65003825  0.21790548     0.20400
H147        H  0.06011341  0.67949930  0.02927088     0.18800
H148        H  0.02916081  0.59408037  0.01903888     0.18700
H149        H  0.14357991  0.73951132  0.22284224     0.14600
C150        C  0.91603858  0.36687031  0.26052260     0.30000
C151        C  0.89691635  0.33340983  0.23764294    -0.36300
C152        C  0.89241177  0.29473162  0.25963630     0.16000
C153        C  0.90602050  0.28946409  0.30107688     0.21800
C154        C  0.92430659  0.32290887  0.32402433    -0.34400
C155        C  0.92860006  0.36137123  0.30227493     0.15900
O156        O  0.92777209  0.40430424  0.24524043    -0.26400
C157        C  0.94765471  0.42278877  0.27792526     0.05700
C158        C  0.94877060  0.39760332  0.31412115    -0.31300
O159        O  0.90181370  0.25018025  0.31463207    -0.23100
C160        C  0.88496161  0.22963125  0.28168287    -0.03100
C161        C  0.87798427  0.25590161  0.24663013    -0.17600
H162        H  0.88783760  0.33676002  0.20456221     0.20400
H163        H  0.93601722  0.31874041  0.35622770     0.18800
H164        H  0.96550006  0.40380971  0.01037211     0.18700
H165        H  0.86567143  0.24716032  0.21565087     0.14600
C166        C  0.89160852  0.70534840  0.28391911     0.30000
C167        C  0.88181029  0.66211986  0.28910058    -0.36300
C168        C  0.91547954  0.63369301  0.28053183     0.16000
C169        C  0.95568401  0.64703251  0.26727749     0.21800
C170        C  0.96558903  0.69017247  0.92898144    -0.34400
C171        C  0.93215015  0.71858005  0.27140255     0.15900
O172        O  0.86505553  0.73732575  0.29011544    -0.26400
C173        C  0.88897639  0.77153673  0.28190670     0.05700
C174        C  0.93110059  0.76176434  0.27022130    -0.31300
O175        O  0.98276829  0.61542359  0.92911406    -0.23100
C176        C  0.96028257  0.58110622  0.27350493    -0.03100
C177        C  0.91777966  0.59063079  0.28454836    -0.17600
H178        H  0.85029045  0.65145308  0.29960887     0.20400
H179        H  0.99740784  0.70082426  0.91942443     0.18800
H180        H  0.95686889  0.78314231  0.92776717     0.18700
H181        H  0.89281097  0.56935453  0.29588573     0.14600
C182        C  0.37106468  0.08734421  0.29138300     0.30000
C183        C  0.34338242  0.11734794  0.27323787    -0.36300
C184        C  0.29946786  0.11281757  0.28312413     0.16000
C185        C  0.28358060  0.08097749  0.30897596     0.21800
C186        C  0.31147144  0.05191889  0.32842136    -0.34400
C187        C  0.35550385  0.05670538  0.31887569     0.15900
O188        O  0.41190880  0.08131197  0.28096835    -0.26400
C189        C  0.42271606  0.04647903  0.30225954     0.05700
C190        C  0.38930413  0.03091571  0.32771200    -0.31300
O191        O  0.24100898  0.08135047  0.31179509    -0.23100
C192        C  0.22965409  0.11421493  0.28777171    -0.03100
C193        C  0.26476027  0.13491276  0.26931243    -0.17600
H194        H  0.35493784  0.14117912  0.25114173     0.20400
H195        H  0.29954536  0.02624116  0.34808009     0.18800
H196        H  0.38850863  0.00163043  0.01233521     0.18700
H197        H  0.26464882  0.16221128  0.24841192     0.14600
C198        C  0.27876499  0.91884986  0.26316911     0.30000
C199        C  0.30560526  0.95109640  0.24738019    -0.36300
C200        C  0.34940853  0.94768463  0.25773186     0.16000
C201        C  0.36554647  0.91524661  0.28249646     0.21800
C202        C  0.33890105  0.88266498  0.96422441    -0.34400
C203        C  0.29530555  0.88578625  0.28680176     0.15900
O204        O  0.23665750  0.91588952  0.25811968    -0.26400
C205        C  0.22642149  0.88018492  0.27834209     0.05700
C206        C  0.26161753  0.86019709  0.29676736    -0.31300
O207        O  0.40654177  0.92051314  0.95853705    -0.23100
C208        C  0.41685416  0.95685590  0.27298690    -0.03100
C209        C  0.38290507  0.97446344  0.25008802    -0.17600
H210        H  0.29310722  0.97744210  0.22909160     0.20400
H211        H  0.35112041  0.85719570  0.98389923     0.18800
H212        H  0.26223487  0.83117291  0.98183933     0.18700
H213        H  0.38221636  0.00428471  0.23302176     0.14600
C214        C  0.62695150  0.90688824  0.28845661     0.30000
C215        C  0.65730549  0.88219781  0.97703946    -0.36300
C216        C  0.69864778  0.88039749  0.29216334     0.16000
C217        C  0.70891458  0.90097443  0.25467911     0.21800
C218        C  0.67855691  0.92495077  0.23249441    -0.34400
C219        C  0.63760911  0.92723229  0.25089234     0.15900
O220        O  0.58847932  0.91787276  0.96924982    -0.26400
C221        C  0.57474006  0.94559959  0.27374689     0.05700
C222        C  0.60368911  0.95225762  0.24065666    -0.31300
O223        O  0.74998831  0.89827155  0.24507182    -0.23100
C224        C  0.76672509  0.87581402  0.27673264    -0.03100
C225        C  0.73620920  0.86350691  0.30696305    -0.17600
H226        H  0.64994064  0.86757101  0.00745235     0.20400
H227        H  0.68704741  0.94268719  0.20409597     0.18800
H228        H  0.60159511  0.97516886  0.21505490     0.18700
H229        H  0.74143307  0.84638867  0.00305054     0.14600
C230        C  0.72269786  0.07373196  0.29934589     0.30000
C231        C  0.69561869  0.04220297  0.98294184    -0.36300
C232        C  0.65163767  0.04583305  0.30651689     0.16000
C233        C  0.63527785  0.07783907  0.28143763     0.21800
C234        C  0.66224086  0.10990080  0.26522924    -0.34400
C235        C  0.70622445  0.10650418  0.27530307     0.15900
O236        O  0.76496423  0.07625704  0.30397095    -0.26400
C237        C  0.77569915  0.11142658  0.28301736     0.05700
C238        C  0.74038465  0.13154189  0.26461186    -0.31300
O239        O  0.59368452  0.07297590  0.27362219    -0.23100
C240        C  0.58328024  0.03729725  0.29397192    -0.03100
C241        C  0.61796209  0.01983081  0.98260943    -0.17600
H242        H  0.70801080  0.01631036  0.00173760     0.20400
H243        H  0.64998455  0.13519386  0.24550135     0.18800
H244        H  0.73997287  0.16039630  0.24599988     0.18700
H245        H  0.61877419  0.99112343  0.00129016     0.14600
C246        C  0.53671575  0.97241216  0.61418345     0.02600
C247        C  0.54045848  0.01641848  0.28950188     0.02500
C248        C  0.50271216  0.04067263  0.29430948    -0.18000
C249        C  0.46180302  0.02152477  0.29172768     0.02600
C250        C  0.45867360  0.97804799  0.61387256     0.02500
C251        C  0.49609927  0.95377994  0.61004549    -0.18000
H252        H  0.49365934  0.92038451  0.60233731     0.04600
H253        H  0.50519372  0.07405658  0.30191724     0.04600
C254        C  0.81441631  0.86800640  0.61308252     0.86800
C255        C  0.83559217  0.88849756  0.65192296    -0.53500
C256        C  0.87919613  0.88263299  0.65374517     0.09700
C257        C  0.89763349  0.85627894  0.61643607     0.20600
C258        C  0.83922776  0.88634360  0.57507478    -0.54200
C259        C  0.88266297  0.88072129  0.57682977     0.09800
C260        C  0.82723799  0.82128174  0.61476843    -0.53700
C261        C  0.87076736  0.81480621  0.61618606     0.10400
H262        H  0.81783402  0.90713668  0.67515689     0.14900
H263        H  0.93309315  0.85186107  0.61785456     0.00600
H264        H  0.82399533  0.90392501  0.54949046     0.15200
H265        H  0.80389368  0.79558143  0.61379191     0.14400
C266        C  0.91087290  0.90255853  0.54610034     0.42700
N267        N  0.92713657  0.94497509  0.49531260     0.01600
C268        C  0.10916110  0.94432438  0.69996494    -0.06300
H269        H  0.14034326  0.95798376  0.53034907     0.07100
C270        C  0.05423045  0.09906950  0.52699309    -0.06600
Co271      Co  0.00486229  0.91811495  0.44629382     0.74200
N272        N  0.08335450  0.94916170  0.49171946    -0.25800
Co273      Co  0.08230872  0.99823585  0.44661127     0.74100
C274        C  0.09479466  0.08675699  0.54655527     0.42800
N275        N  0.95272081  0.06942561  0.49727572     0.01200
N276        N  0.08056691  0.04443424  0.49481260     0.01300
N277        N  0.05766757  0.89348201  0.70245501    -0.46600
H278        H  0.96933181  0.85970721  0.53194428     0.07100
N279        N  0.05383350  0.91891628  0.49077487     0.01600
N280        N  0.07881357  0.04693423  0.40107443     0.01400
C281        C  0.09227267  0.09199646  0.68483466     0.43000
N282        N  0.92312219  0.03935792  0.49780757    -0.25200
C283        C  0.94712066  0.89011317  0.70346087    -0.06200
N284        N  0.89824892  0.93771951  0.52533897    -0.46400
N285        N  0.10706633  0.05633146  0.70379951    -0.46600
C286        C  0.90581602  0.90375159  0.68627544     0.42700
N287        N  0.05154247  0.92218904  0.39898651     0.01600
N288        N  0.92120587  0.04112587  0.40451628    -0.25300
N289        N  0.95793755  0.91616596  0.49431431    -0.25800
N290        N  0.95056775  0.07148437  0.40501808     0.01200
H291        H  0.86348799  0.03182318  0.70034096     0.07100
H292        H  0.03208302  0.13119519  0.70156112     0.07200
N293        N  0.08143885  0.95209629  0.39878753    -0.25800
N294        N  0.04825892  0.07160679  0.49540867    -0.25400
N295        N  0.92419957  0.94611903  0.40305432     0.01600
C296        C  0.09659684  0.89950411  0.54014666     0.43000
C297        C  0.89515693  0.04759503  0.52973941    -0.06700
N298        N  0.04683571  0.07443312  0.40311353    -0.25400
H299        H  0.03362867  0.12578281  0.53405564     0.07200
N300        N  0.06081228  0.88853660  0.51880290    -0.46600
H301        H  0.86631585  0.02963377  0.53703140     0.07100
C302        C  0.90663945  0.09048222  0.68939278     0.42800
C303        C  0.95059654  0.88789518  0.52571777    -0.06200
Co304      Co  0.92312779  0.99274409  0.45013587     0.73800
N305        N  0.94616019  0.09879160  0.52653224    -0.46400
C306        C  0.09306785  0.90531125  0.68054401     0.43100
N307        N  0.89344660  0.93843181  0.70831084    -0.46400
Co308      Co  0.99964363  0.07219340  0.45014975     0.73900
C309        C  0.05253346  0.10392070  0.70647214    -0.06700
C310        C  0.11177090  0.93988750  0.52262193    -0.06200
N311        N  0.95560260  0.91799261  0.40134797    -0.25800
N312        N  0.10981999  0.05275572  0.52468101    -0.46500
H313        H  0.13808753  0.96220592  0.69285045     0.07100
C314        C  0.89217000  0.05004736  0.70734171    -0.06700
Cl315      Cl  0.00248862  0.99532690  0.44824066    -0.49700
C316        C  0.91072128  0.08723702  0.54860316     0.42900
H317        H  0.96610888  0.86248400  0.69567688     0.07100
N318        N  0.94276621  0.10175115  0.37699018    -0.46400
C319        C  0.87623852  0.18249238  0.61595690     0.86800
C320        C  0.89325565  0.16026704  0.65598671    -0.53500
C321        C  0.88608351  0.11753031  0.65687585     0.09700
C322        C  0.86137100  0.10086870  0.61777543     0.20600
C323        C  0.89719554  0.15824967  0.57918077    -0.54200
C324        C  0.88955350  0.11552055  0.57980243     0.09800
C325        C  0.82837809  0.17106079  0.61402229    -0.53700
C326        C  0.82022819  0.12846587  0.61532673     0.10400
H327        H  0.91134323  0.17654165  0.68063306     0.14900
H328        H  0.85527204  0.06616080  0.61848515     0.00600
H329        H  0.91716478  0.17356165  0.55517314     0.15200
H330        H  0.80311490  0.19482469  0.61296843     0.15000
C331        C  0.12657109  0.80909547  0.61555493     0.86800
C332        C  0.10739902  0.83412113  0.65261406    -0.53500
C333        C  0.11462765  0.87670139  0.65041152     0.09700
C334        C  0.14140914  0.89050505  0.61137429     0.20600
C335        C  0.10779077  0.83027412  0.57581801    -0.54200
C336        C  0.11563886  0.87293292  0.57356772     0.09800
C337        C  0.17441360  0.82041406  0.61526806    -0.53700
C338        C  0.18235340  0.86296064  0.61300922     0.10400
H339        H  0.08825539  0.81966021  0.67778259     0.14900
H340        H  0.14750229  0.92518931  0.60975654     0.00600
H341        H  0.08908352  0.81322377  0.55216516     0.15200
H342        H  0.19971431  0.79669063  0.61619649     0.15000
C343        C  0.12869844  0.18247438  0.61181610     0.86800
C344        C  0.11253114  0.15743440  0.57348466    -0.53500
C345        C  0.11934390  0.11477006  0.57564490     0.09700
C346        C  0.14379469  0.10106121  0.61634205     0.20600
C347        C  0.10772627  0.16085795  0.65023385    -0.54200
C348        C  0.11511736  0.11821709  0.65278488     0.09800
C349        C  0.17640036  0.17197113  0.61462067    -0.53700
C350        C  0.18482658  0.12952614  0.61721114     0.10400
H351        H  0.09474706  0.17203221  0.54764312     0.14900
H352        H  0.15006421  0.06645835  0.61823664     0.00600
H353        H  0.08751604  0.17788737  0.67274597     0.15200
H354        H  0.20132648  0.19619585  0.61529011     0.15000
C355        C  0.02577007  0.53421608  0.61626830     0.02600
C356        C  0.98067094  0.53839665  0.60978875     0.02500
C357        C  0.95545810  0.50135424  0.60597179    -0.18000
C358        C  0.97474932  0.46115791  0.60723995     0.02600
C359        C  0.02009231  0.45783185  0.61042696     0.02500
C360        C  0.04500940  0.49427365  0.61572327    -0.18000
H361        H  0.07964263  0.49156944  0.61927639     0.04600
H362        H  0.92081910  0.50356058  0.60266905     0.04600
C363        C  0.08818551  0.28441485  0.58934311     0.30000
C364        C  0.06151751  0.31328288  0.56845035    -0.36300
C365        C  0.05846023  0.35338033  0.58693827     0.16000
C366        C  0.08047687  0.36472256  0.62332784     0.21800
C367        C  0.10753166  0.33576583  0.64419775    -0.34400
C368        C  0.11019485  0.29523721  0.62588926     0.15900
O369        O  0.09309900  0.24443847  0.57893516    -0.26400
C370        C  0.11843356  0.22896928  0.60917452     0.05700
C371        C  0.13028405  0.25920694  0.63929460    -0.31300
O372        O  0.07091233  0.40345264  0.63606767    -0.23100
C373        C  0.04210067  0.41654453  0.60764969    -0.03100
C374        C  0.03357248  0.38688286  0.57616018    -0.17600
H375        H  0.04317507  0.30456230  0.54046189     0.20400
H376        H  0.12414013  0.34380748  0.67339908     0.18800
H377        H  0.14936783  0.25472057  0.66773252     0.18700
H378        H  0.01135401  0.38932728  0.54975431     0.14600
C379        C  0.08970343  0.62442609  0.60658771     0.30000
C380        C  0.11137381  0.65577308  0.58316993    -0.36300
C381        C  0.11370574  0.69579698  0.60224683     0.16000
C382        C  0.09610100  0.70427980  0.64174186     0.21800
C383        C  0.07538171  0.67272752  0.33232006    -0.34400
C384        C  0.07289232  0.63275041  0.64652321     0.15900
O385        O  0.07806766  0.58698652  0.59210118    -0.26400
C386        C  0.05368485  0.57119080  0.62314503     0.05700
C387        C  0.04982998  0.59790811  0.32478688    -0.31300
O388        O  0.09855866  0.74463953  0.65182644    -0.23100
C389        C  0.11810931  0.76231052  0.61846442    -0.03100
C390        C  0.12867341  0.73334786  0.58677632    -0.17600
H391        H  0.12322730  0.65004100  0.55122818     0.20400
H392        H  0.06010652  0.67950117  0.36260329     0.18800
H393        H  0.02915300  0.59408254  0.35236857     0.18700
H394        H  0.14357005  0.73951416  0.55616654     0.14600
C395        C  0.91603983  0.36687065  0.59385049     0.30000
C396        C  0.89692086  0.33340908  0.57096964    -0.36300
C397        C  0.89241319  0.29473188  0.59296435     0.16000
C398        C  0.90601629  0.28946629  0.63440698     0.21800
C399        C  0.92429883  0.32291219  0.65735544    -0.34400
C400        C  0.92859518  0.36137357  0.63560489     0.15900
O401        O  0.92777581  0.40430379  0.57856820    -0.26400
C402        C  0.94765353  0.42278984  0.61125513     0.05700
C403        C  0.94876404  0.39760613  0.64745228    -0.31300
O404        O  0.90180831  0.25018298  0.64796334    -0.23100
C405        C  0.88496089  0.22963234  0.61501291    -0.03100
C406        C  0.87798766  0.25590113  0.57995800    -0.17600
H407        H  0.88784701  0.33675765  0.53788769     0.20400
H408        H  0.93600496  0.31874524  0.68956055     0.18800
H409        H  0.96550504  0.40380681  0.34370551     0.18700
H410        H  0.86567934  0.24715843  0.54897785     0.14600
C411        C  0.89161124  0.70534814  0.61726214     0.30000
C412        C  0.88181485  0.66211990  0.62244805    -0.36300
C413        C  0.91548368  0.63369319  0.61387820     0.16000
C414        C  0.95568666  0.64703260  0.60061910     0.21800
C415        C  0.96558565  0.69017101  0.26230648    -0.34400
C416        C  0.93215152  0.71857978  0.60474092     0.15900
O417        O  0.86505771  0.73732535  0.62345705    -0.26400
C418        C  0.88897692  0.77153614  0.61524279     0.05700
C419        C  0.93110042  0.76176380  0.60355513    -0.31300
O420        O  0.98276442  0.61542201  0.26243872    -0.23100
C421        C  0.96028577  0.58110644  0.60684612    -0.03100
C422        C  0.91778433  0.59063107  0.61789491    -0.17600
H423        H  0.85029515  0.65145282  0.63295966     0.20400
H424        H  0.99740372  0.70082245  0.25274803     0.18800
H425        H  0.95686685  0.78314102  0.26109604     0.18700
H426        H  0.89281679  0.56935476  0.62923438     0.14600
C427        C  0.37106578  0.08734401  0.62472181     0.30000
C428        C  0.34338402  0.11734981  0.60657938    -0.36300
C429        C  0.29946932  0.11281926  0.61646490     0.16000
C430        C  0.28358135  0.08097709  0.64231371     0.21800
C431        C  0.31147173  0.05191647  0.66175688    -0.34400
C432        C  0.35550436  0.05670309  0.65221182     0.15900
O433        O  0.41190976  0.08131178  0.61430640    -0.26400
C434        C  0.42271648  0.04647671  0.63559438     0.05700
C435        C  0.38930425  0.03091199  0.66104573    -0.31300
O436        O  0.24100957  0.08134964  0.64513139    -0.23100
C437        C  0.22965529  0.11421589  0.62111013    -0.03100
C438        C  0.26476209  0.13491544  0.60265386    -0.17600
H439        H  0.35493994  0.14118271  0.58448503     0.20400
H440        H  0.29954513  0.02623704  0.68141302     0.18800
H441        H  0.38850814  0.00163219  0.34566537     0.18700
H442        H  0.26465125  0.16221513  0.58175509     0.14600
C443        C  0.27876532  0.91884761  0.59650011     0.30000
C444        C  0.30560480  0.95109548  0.58071299    -0.36300
C445        C  0.34940832  0.94768313  0.59106292     0.16000
C446        C  0.36554737  0.91524317  0.61582428     0.21800
C447        C  0.33889989  0.88266824  0.29756671    -0.34400
C448        C  0.29530684  0.88578189  0.62012926     0.15900
O449        O  0.23665759  0.91588818  0.59145263    -0.26400
C450        C  0.22642225  0.88018213  0.61167267     0.05700
C451        C  0.26161903  0.86019236  0.63009437    -0.31300
O452        O  0.40654141  0.92051421  0.29187520    -0.23100
C453        C  0.41685392  0.95685444  0.60631741    -0.03100
C454        C  0.38290411  0.97446329  0.58342059    -0.17600
H455        H  0.29310583  0.97744299  0.56242724     0.20400
H456        H  0.35111823  0.85720154  0.31724421     0.18800
H457        H  0.26223275  0.83117878  0.31518417     0.18700
H458        H  0.38221444  0.00428559  0.56635706     0.14600
C459        C  0.62695022  0.90688513  0.62178453     0.30000
C460        C  0.65730522  0.88219583  0.31037387    -0.36300
C461        C  0.69864683  0.88039549  0.62549285     0.16000
C462        C  0.70891365  0.90097102  0.58800785     0.21800
C463        C  0.67855574  0.92494610  0.56582202    -0.34400
C464        C  0.63760775  0.92722795  0.58421954     0.15900
O465        O  0.58847915  0.91787146  0.30258450    -0.26400
C466        C  0.57473890  0.94559637  0.60707401     0.05700
C467        C  0.60368771  0.95225317  0.57398327    -0.31300
O468        O  0.74998757  0.89826824  0.57840108    -0.23100
C469        C  0.76672441  0.87581222  0.61006302    -0.03100
C470        C  0.73620835  0.86350603  0.64029363    -0.17600
H471        H  0.64993958  0.86756717  0.34078586     0.20400
H472        H  0.68704632  0.94268176  0.53742280     0.18800
H473        H  0.60159383  0.97516394  0.54838111     0.18700
H474        H  0.74143256  0.84638526  0.33638461     0.14600
C475        C  0.72269997  0.07372757  0.63267211     0.30000
C476        C  0.69561668  0.04220515  0.31627682    -0.36300
C477        C  0.65164014  0.04582749  0.63984312     0.16000
C478        C  0.63527844  0.07783789  0.61477080     0.21800
C479        C  0.66224032  0.10990265  0.59856665    -0.34400
C480        C  0.70622470  0.10650426  0.60863675     0.15900
O481        O  0.76496667  0.07625217  0.63729515    -0.26400
C482        C  0.77569999  0.11142596  0.61634785     0.05700
C483        C  0.74038399  0.13154426  0.59794837    -0.31300
O484        O  0.59368440  0.07297615  0.60695765    -0.23100
C485        C  0.58328148  0.03729399  0.62730198    -0.03100
C486        C  0.61796022  0.01983326  0.31594436    -0.17600
H487        H  0.70800817  0.01631402  0.33507529     0.20400
H488        H  0.64998247  0.13519966  0.57884453     0.18800
H489        H  0.73997047  0.16040245  0.57934192     0.18700
H490        H  0.61877172  0.99112713  0.33462688     0.14600
C491        C  0.53671580  0.97241472  0.94752060     0.02600
C492        C  0.54045905  0.01641589  0.62283171     0.02500
C493        C  0.50271284  0.04067014  0.62764150    -0.18000
C494        C  0.46180328  0.02152265  0.62506025     0.02600
C495        C  0.45867344  0.97805058  0.94720907     0.02500
C496        C  0.49609924  0.95378244  0.94338193    -0.18000
H497        H  0.49365941  0.92038743  0.93567328     0.04600
H498        H  0.50519486  0.07405372  0.63525071     0.04600
C499        C  0.81441637  0.86800818  0.94641545     0.86800
C500        C  0.83559232  0.88849814  0.98525635    -0.53500
C501        C  0.87919619  0.88263350  0.98707836     0.09700
C502        C  0.89763354  0.85628057  0.94976843     0.20600
C503        C  0.83922755  0.88634651  0.90840822    -0.54200
C504        C  0.88266271  0.88072405  0.91016289     0.09800
C505        C  0.82723811  0.82128350  0.94809985    -0.53700
C506        C  0.87076745  0.81480776  0.94951723     0.10400
H507        H  0.81783413  0.90713670  0.00849100     0.14900
H508        H  0.93309320  0.85186287  0.95118666     0.00600
H509        H  0.82399497  0.90392839  0.88282438     0.15200
H510        H  0.80389356  0.79558312  0.94712269     0.14400
C511        C  0.91087226  0.90256081  0.87943298     0.42700
N512        N  0.92713507  0.94497599  0.82864395     0.01600
C513        C  0.10916020  0.94432416  0.03329848    -0.06300
H514        H  0.14034056  0.95798313  0.86368366     0.07100
C515        C  0.05422906  0.09906948  0.86032689    -0.06600
Co516      Co  0.00486109  0.91811497  0.77962620     0.74200
N517        N  0.08335252  0.94916122  0.82505340    -0.25800
Co518      Co  0.08230786  0.99823534  0.77994530     0.74100
C519        C  0.09479294  0.08675679  0.87988966     0.42800
N520        N  0.95271956  0.06942616  0.83060822     0.01200
N521        N  0.08056557  0.04443387  0.82814684     0.01300
N522        N  0.05766712  0.89348137  0.03578830    -0.46600
H523        H  0.96933138  0.85970857  0.86527758     0.07100
N524        N  0.05383158  0.91891576  0.82410824     0.01600
N525        N  0.07881344  0.04693369  0.73440843     0.01400
C526        C  0.09227155  0.09199534  0.01816928     0.43000
N527        N  0.92312064  0.03935876  0.83113942    -0.25200
C528        C  0.94712028  0.89011256  0.03679474    -0.06200
N529        N  0.89824792  0.93772132  0.85867098    -0.46400
N530        N  0.10706515  0.05633026  0.03713388    -0.46600
C531        C  0.90581585  0.90375129  0.01960921     0.42700
N532        N  0.05154246  0.92218821  0.73231986     0.01600
N533        N  0.92120582  0.04112708  0.73784807    -0.25300
N534        N  0.95793593  0.91616671  0.82764600    -0.25800
N535        N  0.95056769  0.07148557  0.73835058     0.01200
H536        H  0.86348728  0.03182245  0.03367449     0.07100
H537        H  0.03208201  0.13119403  0.03489588     0.07200
N538        N  0.08143898  0.95209537  0.73212148    -0.25800
N539        N  0.04825777  0.07160663  0.82874245    -0.25400
N540        N  0.92419895  0.94611987  0.73638548     0.01600
C541        C  0.09659432  0.89950351  0.87348054     0.43000
C542        C  0.89515511  0.04759597  0.86307101    -0.06700
N543        N  0.04683567  0.07443271  0.73644724    -0.25400
H544        H  0.03362746  0.12578280  0.86738904     0.07200
N545        N  0.06081004  0.88853593  0.85213628    -0.46600
H546        H  0.86631357  0.02963472  0.87036265     0.07100
C547        C  0.90663946  0.09048119  0.02272659     0.42800
C548        C  0.95059525  0.88789698  0.85905015    -0.06200
Co549      Co  0.92312685  0.99274498  0.78346732     0.73800
N550        N  0.94615892  0.09879195  0.85986499    -0.46400
C551        C  0.09306728  0.90531116  0.01387729     0.43100
N552        N  0.89344622  0.93843115  0.04164503    -0.46400
Co553      Co  0.99964309  0.07219367  0.78348288     0.73900
C554        C  0.05253228  0.10391954  0.03980670    -0.06700
C555        C  0.11176851  0.93988702  0.85595622    -0.06200
N556        N  0.95560183  0.91799318  0.73467951    -0.25800
N557        N  0.10981827  0.05275528  0.85801569    -0.46500
H558        H  0.13808659  0.96220602  0.02618412     0.07100
C559        C  0.89216934  0.05004648  0.04067564    -0.06700
Cl560      Cl  0.00248774  0.99532706  0.78157331    -0.49700
C561        C  0.91071962  0.08723760  0.88193546     0.42900
H562        H  0.96610876  0.86248358  0.02901022     0.07100
N563        N  0.94276622  0.10175294  0.71032324    -0.46400
C564        C  0.87623929  0.18249246  0.94929135     0.86800
C565        C  0.89325730  0.16026638  0.98932041    -0.53500
C566        C  0.88608446  0.11752972  0.99020938     0.09700
C567        C  0.86137085  0.10086884  0.95110933     0.20600
C568        C  0.89719495  0.15824996  0.91251430    -0.54200
C569        C  0.88955249  0.11552087  0.91313561     0.09800
C570        C  0.82837876  0.17106135  0.94735800    -0.53700
C571        C  0.82022835  0.12846662  0.94866231     0.10400
H572        H  0.91134542  0.17654059  0.01396670     0.14900
H573        H  0.85527144  0.06616110  0.95181882     0.00600
H574        H  0.91716363  0.17356200  0.88850642     0.15200
H575        H  0.80311539  0.19482575  0.94630524     0.15000
C576        C  0.12657115  0.80909547  0.94888893     0.86800
C577        C  0.10739994  0.83412126  0.98594832    -0.53500
C578        C  0.11462781  0.87670152  0.98374515     0.09700
C579        C  0.14140811  0.89050520  0.94470710     0.20600
C580        C  0.10778929  0.83027349  0.90915226    -0.54200
C581        C  0.11563682  0.87293245  0.90690147     0.09800
C582        C  0.17441348  0.82041474  0.94860046    -0.53700
C583        C  0.18235291  0.86296133  0.94634092     0.10400
H584        H  0.08825710  0.81966043  0.01111750     0.14900
H585        H  0.14750076  0.92518953  0.94308896     0.00600
H586        H  0.08908171  0.81322277  0.88550021     0.15200
H587        H  0.19971471  0.79669133  0.94952851     0.15000
C588        C  0.12869750  0.18247368  0.94515185     0.86800
C589        C  0.11252919  0.15743410  0.90682039    -0.53500
C590        C  0.11934180  0.11476961  0.90898004     0.09700
C591        C  0.14379312  0.10106023  0.94967666     0.20600
C592        C  0.10772587  0.16085707  0.98356968    -0.54200
C593        C  0.11511651  0.11821613  0.98612003     0.09800
C594        C  0.17639950  0.17196993  0.94795550    -0.53700
C595        C  0.18482529  0.12952471  0.95054537     0.10400
H596        H  0.09474498  0.17203217  0.88097942     0.14900
H597        H  0.15006231  0.06645732  0.95157088     0.00600
H598        H  0.08751605  0.17788641  0.00608230     0.15200
H599        H  0.20132563  0.19619411  0.94862477     0.15000
C600        C  0.02576997  0.53421689  0.94960458     0.02600
C601        C  0.98067099  0.53839744  0.94312252     0.02500
C602        C  0.95545886  0.50135470  0.93930472    -0.18000
C603        C  0.97475005  0.46115844  0.94057398     0.02600
C604        C  0.02009310  0.45783264  0.94376206     0.02500
C605        C  0.04500931  0.49427460  0.94905964    -0.18000
H606        H  0.07964360  0.49157048  0.95261410     0.04600
H607        H  0.92081890  0.50356074  0.93600056     0.04600
C608        C  0.08818585  0.28441496  0.92267922     0.30000
C609        C  0.06151849  0.31328332  0.90178535    -0.36300
C610        C  0.05846156  0.35338101  0.92027367     0.16000
C611        C  0.08047725  0.36472289  0.95666367     0.21800
C612        C  0.10753124  0.33576573  0.97753456    -0.34400
C613        C  0.11019428  0.29523689  0.95922584     0.15900
O614        O  0.09309915  0.24443860  0.91227103    -0.26400
C615        C  0.11843288  0.22896886  0.94251081     0.05700
C616        C  0.13028287  0.25920629  0.97263142    -0.31300
O617        O  0.07091272  0.40345306  0.96940343    -0.23100
C618        C  0.04210188  0.41654536  0.94098479    -0.03100
C619        C  0.03357416  0.38688379  0.90949486    -0.17600
H620        H  0.04317788  0.30456358  0.87379816     0.20400
H621        H  0.12413839  0.34380681  0.00673524     0.18800
H622        H  0.14936603  0.25471957  0.00106972     0.18700
H623        H  0.01135655  0.38932829  0.88308925     0.14600
C624        C  0.08970623  0.62442527  0.93992733     0.30000
C625        C  0.11137883  0.65577120  0.91651009    -0.36300
C626        C  0.11370874  0.69579604  0.93558524     0.16000
C627        C  0.09610061  0.70428050  0.97507845     0.21800
C628        C  0.07538913  0.67272426  0.66565068    -0.34400
C629        C  0.07289142  0.63275132  0.97986099     0.15900
O630        O  0.07807100  0.58698549  0.92544097    -0.26400
C631        C  0.05368460  0.57119145  0.95648293     0.05700
C632        C  0.04983938  0.59790424  0.65811895    -0.31300
O633        O  0.09855689  0.74464074  0.98516119    -0.23100
C634        C  0.11810980  0.76231048  0.95179975    -0.03100
C635        C  0.12867675  0.73334646  0.92011390    -0.17600
H636        H  0.12323498  0.65003776  0.88456955     0.20400
H637        H  0.06011897  0.67949608  0.69593619     0.18800
H638        H  0.02916674  0.59407715  0.68570378     0.18700
H639        H  0.14357573  0.73951157  0.88950470     0.14600
C640        C  0.91603971  0.36687129  0.92718608     0.30000
C641        C  0.89691902  0.33341021  0.90430570    -0.36300
C642        C  0.89241302  0.29473245  0.92629998     0.16000
C643        C  0.90601910  0.28946593  0.96774149     0.21800
C644        C  0.92430328  0.32291135  0.99068942    -0.34400
C645        C  0.92859801  0.36137325  0.96893945     0.15900
O646        O  0.92777461  0.40430480  0.91190381    -0.26400
C647        C  0.94765465  0.42279010  0.94458982     0.05700
C648        C  0.94876753  0.39760553  0.98078625    -0.31300
O649        O  0.90181197  0.25018233  0.98129733    -0.23100
C650        C  0.88496213  0.22963241  0.94834764    -0.03100
C651        C  0.87798652  0.25590198  0.91329380    -0.17600
H652        H  0.88784285  0.33675948  0.87122502     0.20400
H653        H  0.93601168  0.31874371  0.02289353     0.18800
H654        H  0.96549440  0.40381093  0.67703880     0.18700
H655        H  0.86567579  0.24715995  0.88231427     0.14600
C656        C  0.89161006  0.70534924  0.95058815     0.30000
C657        C  0.88181235  0.66212072  0.95577006    -0.36300
C658        C  0.91548248  0.63369413  0.94720431     0.16000
C659        C  0.95568769  0.64703397  0.93395243     0.21800
C660        C  0.96558685  0.69017086  0.59564424    -0.34400
C661        C  0.93215247  0.71858122  0.93807425     0.15900
O662        O  0.86505597  0.73732637  0.95678118    -0.26400
C663        C  0.88897682  0.77153750  0.94857296     0.05700
C664        C  0.93110208  0.76176540  0.93689119    -0.31300
O665        O  0.98276652  0.61542209  0.59577741    -0.23100
C666        C  0.96028589  0.58110744  0.94017802    -0.03100
C667        C  0.91778251  0.59063182  0.95121990    -0.17600
H668        H  0.85029116  0.65145346  0.96627607     0.20400
H669        H  0.99740394  0.70082241  0.58608122     0.18800
H670        H  0.95686535  0.78314049  0.59442520     0.18700
H671        H  0.89281283  0.56935509  0.96255465     0.14600
C672        C  0.37106500  0.08734474  0.95805663     0.30000
C673        C  0.34338258  0.11734867  0.93991225    -0.36300
C674        C  0.29946798  0.11281771  0.94979768     0.16000
C675        C  0.28358061  0.08097682  0.97564844     0.21800
C676        C  0.31147159  0.05191785  0.99509339    -0.34400
C677        C  0.35550419  0.05670489  0.98554820     0.15900
O678        O  0.41190911  0.08131288  0.94764163    -0.26400
C679        C  0.42271656  0.04647912  0.96893135     0.05700
C680        C  0.38930463  0.03091479  0.99438334    -0.31300
O681        O  0.24100882  0.08134919  0.97846659    -0.23100
C682        C  0.22965398  0.11421402  0.95444356    -0.03100
C683        C  0.26476038  0.13491266  0.93598563    -0.17600
H684        H  0.35493817  0.14118078  0.91781644     0.20400
H685        H  0.29954553  0.02623943  0.01475103     0.18800
H686        H  0.38850770  0.00162696  0.67899667     0.18700
H687        H  0.26464907  0.16221154  0.91508560     0.14600
C688        C  0.27876484  0.91884962  0.92983252     0.30000
C689        C  0.30560428  0.95109852  0.91404691    -0.36300
C690        C  0.34940783  0.94768629  0.92439763     0.16000
C691        C  0.36554682  0.91524564  0.94915804     0.21800
C692        C  0.33890154  0.88266329  0.63089232    -0.34400
C693        C  0.29530648  0.88578336  0.95346077     0.15900
O694        O  0.23665704  0.91588997  0.92478475    -0.26400
C695        C  0.22642184  0.88018321  0.94500379     0.05700
C696        C  0.26161884  0.86019330  0.96342492    -0.31300
O697        O  0.40654240  0.92051082  0.62520264    -0.23100
C698        C  0.41685347  0.95685742  0.93965321    -0.03100
C699        C  0.38290368  0.97446698  0.91675668    -0.17600
H700        H  0.29310550  0.97744617  0.89576215     0.20400
H701        H  0.35112090  0.85719462  0.65056775     0.18800
H702        H  0.26223484  0.83117238  0.64850924     0.18700
H703        H  0.38221415  0.00428949  0.89969400     0.14600
C704        C  0.62695125  0.90688889  0.95512147     0.30000
C705        C  0.65730411  0.88219402  0.64370301    -0.36300
C706        C  0.69864758  0.88039844  0.95882806     0.16000
C707        C  0.70891359  0.90097331  0.92134249     0.21800
C708        C  0.67855531  0.92494840  0.89915716    -0.34400
C709        C  0.63760788  0.92723101  0.91755585     0.15900
O710        O  0.58847803  0.91786895  0.63591226    -0.26400
C711        C  0.57473934  0.94559943  0.94041126     0.05700
C712        C  0.60368751  0.95225588  0.90731993    -0.31300
O713        O  0.74998723  0.89826993  0.91173469    -0.23100
C714        C  0.76672456  0.87581411  0.94339652    -0.03100
C715        C  0.73620919  0.86350860  0.97362801    -0.17600
H716        H  0.64993854  0.86756676  0.67411552     0.20400
H717        H  0.68704522  0.94268342  0.87075729     0.18800
H718        H  0.60159279  0.97516609  0.88171701     0.18700
H719        H  0.74143162  0.84638562  0.66971598     0.14600
C720        C  0.72269929  0.07373144  0.96601288     0.30000
C721        C  0.69562004  0.04219745  0.64959911    -0.36300
C722        C  0.65163928  0.04583141  0.97318327     0.16000
C723        C  0.63527861  0.07783946  0.94810723     0.21800
C724        C  0.66224099  0.10990285  0.93190097    -0.34400
C725        C  0.70622494  0.10650555  0.94197337     0.15900
O726        O  0.76496592  0.07625622  0.97063649    -0.26400
C727        C  0.77570000  0.11142743  0.94968521     0.05700
C728        C  0.74038466  0.13154414  0.93128280    -0.31300
O729        O  0.59368502  0.07297685  0.94029249    -0.23100
C730        C  0.58328130  0.03729643  0.96063942    -0.03100
C731        C  0.61796322  0.01982665  0.64926916    -0.17600
H732        H  0.70801262  0.01630338  0.66839157     0.20400
H733        H  0.64998416  0.13519724  0.91217580     0.18800
H734        H  0.73997202  0.16039976  0.91267290     0.18700
H735        H  0.61877615  0.99111812  0.66794798     0.14600
loop_ 
_geom_bond_atom_site_label_1 
_geom_bond_atom_site_label_2 
_geom_bond_distance 
_geom_bond_site_symmetry_2 
_ccdc_geom_bond_type 
C1            C6   1.395       .  A
C1          C247   1.419   1_565  A
C1          C221   1.469       .  S
C2            C3   1.408       .  A
C2          C491   1.419   1_545  A
C2          C730   1.488       .  S
C3            C4   1.407       .  A
C3            H8   1.082       .  S
C4          C495   1.419   1_545  A
C4          C679   1.483       .  S
C5            C6   1.397       .  A
C5          C249   1.419   1_565  A
C5          C208   1.478       .  S
C6            H7   1.083       .  S
C9           C10   1.531       .  S
C9           C15   1.528       .  S
C9           C13   1.531       .  S
C9          C224   1.503       .  S
C10          H17   1.086       .  S
C10          C11   1.367       .  D
C11          C12   1.546       .  S
C11          C41   1.474       .  S
C12          C16   1.549       .  S
C12          C14   1.537       .  S
C12          H18   1.110       .  S
C13          H19   1.086       .  S
C13          C14   1.360       .  D
C14          C21   1.470       .  S
C15          H20   1.086       .  S
C15          C16   1.367       .  D
C16         C173   1.478       .  S
C21          C58   1.462       .  S
C21          N39   1.346       .  A
N22          N39   1.318       .  A
N22          N44   1.320       .  A
N22         Co59   2.074       .  S
C23          C61   1.461       .  S
C23          H68   1.081       .  S
C23         N293   1.347       .  A
H24          C65   1.081       .  S
C25          C29   1.456       .  S
C25          H54   1.081       .  S
C25          N49   1.331       .  A
Co26         N44   2.093   1_455  S
Co26         N34   2.068       .  S
Co26         N66   2.084   1_455  S
Co26         N42   2.074       .  S
Co26        Cl70   2.437       .  S
N27          C65   1.346       .  A
N27          N34   1.321       .  A
N27         Co28   2.099       .  S
Co28         N31   2.102   1_565  S
Co28         N48   2.092       .  S
Co28         N35   2.102   1_565  S
Co28        Cl70   2.477       .  S
C29         C100   1.483       .  S
C29          N67   1.356       .  A
N30          N37   1.319       .  A
N30          N60   1.321       .  A
N30         Co63   2.074       .  S
N31          N49   1.320       .  A
N31          N67   1.333       .  A
N32          C61   1.346       .  A
N32         N287   1.318       .  A
H33          C58   1.081       .  S
N34          N55   1.320       .  A
N35          N53   1.320       .  A
N35         N530   1.331       .  A
C36          C64   1.455       .  S
C36         C103   1.480       .  S
C36          N40   1.355       .  A
N37          C52   1.349       .  A
N37         Co59   2.099   1_545  S
C38          C41   1.458       .  S
C38          H72   1.080       .  S
C38         N311   1.344       .  A
N40         N280   1.331       .  A
C41          N62   1.350       .  A
N42          N48   1.321       .  A
N42         N522   1.318       .  A
N43         C559   1.348       .  A
N43          N45   1.320       .  A
N43         Co59   2.094   1_545  S
N44          C58   1.348       .  A
N45          N73   1.322       .  A
N45         Co63   2.084       .  S
H46          C69   1.081       .  S
H47          C64   1.081       .  S
N48         C513   1.347       .  A
N49         Co63   2.076   1_455  S
N50          N66   1.320       .  A
N50         N552   1.324       .  A
N50         Co59   2.086       .  S
C51          C65   1.464       .  S
C51          C91   1.470       .  S
C51          N55   1.344       .  A
C52          C71   1.466       .  S
C52          H56   1.082       .  S
N53         C554   1.334       .  A
N53         Co63   2.077   1_455  S
C57          C69   1.463       .  S
C57          C76   1.478       .  S
C57         N318   1.348       .  A
Co59        Cl70   2.463   1_655  S
N60          C71   1.347       .  A
C61          C88   1.468       .  S
N62         N295   1.324       .  A
Co63        Cl70   2.427   1_645  S
C64         N298   1.334       .  A
N66         C528   1.344       .  A
C69         N288   1.348       .  A
C71          C79   1.478       .  S
N73         C547   1.348       .  A
C74          C75   1.535       .  S
C74          C80   1.528       .  S
C74          C78   1.529       .  S
C74         C160   1.511       .  S
C75          H82   1.086       .  S
C75          C76   1.366       .  D
C76          C77   1.542       .  S
C77          C81   1.548       .  S
C77          C79   1.546       .  S
C77          H83   1.111       .  S
C78          H84   1.086       .  S
C78          C79   1.368       .  D
C80          H85   1.086       .  S
C80          C81   1.367       .  D
C81         C237   1.481       .  S
C86          C87   1.526       .  S
C86          C92   1.525       .  S
C86          C90   1.533       .  S
C86         C144   1.501       .  S
C87          H94   1.087       .  S
C87          C88   1.363       .  D
C88          C89   1.541       .  S
C89          C93   1.541       .  S
C89          C91   1.537       .  S
C89          H95   1.111       .  S
C90          H96   1.086       .  S
C90          C91   1.369       .  D
C92          H97   1.086       .  S
C92          C93   1.366       .  D
C93         C205   1.470       .  S
C98          C99   1.526       .  S
C98         C104   1.520       .  S
C98         C102   1.528       .  S
C98         C125   1.504       .  S
C99         H106   1.086       .  S
C99         C100   1.364       .  D
C100        C101   1.551       .  S
C101        C105   1.556       .  S
C101        C103   1.546       .  S
C101        H107   1.111       .  S
C102        H108   1.086       .  S
C102        C103   1.367       .  D
C104        H109   1.086       .  S
C104        C105   1.367       .  D
C105        C192   1.478       .  S
C110        C111   1.421   1_455  A
C110        C115   1.395       .  A
C110        C141   1.468       .  S
C111        C112   1.410       .  A
C111        C176   1.492       .  S
C112        C113   1.404       .  A
C112        H117   1.082       .  S
C113        C114   1.414   1_655  A
C113        C157   1.477       .  S
C114        C115   1.394       .  A
C114        C128   1.474       .  S
C115        H116   1.084       .  S
C118        C123   1.380       .  A
C118        C119   1.397       .  A
C118        O124   1.312       .  A
C119        C120   1.395       .  A
C119        H130   1.084       .  S
C120        C129   1.354       .  A
C120        C121   1.381       .  A
C121        C122   1.405       .  A
C121        O127   1.320       .  A
C122        C123   1.404       .  A
C122        H131   1.084       .  S
C123        C126   1.364       .  A
O124        C125   1.328       .  A
C125        C126   1.393       .  A
C126        H132   1.083       .  S
O127        C128   1.332       .  A
C128        C129   1.388       .  A
C129        H133   1.083       .  S
C134        C139   1.382       .  A
C134        C135   1.401       .  A
C134        O140   1.316       .  A
C135        C136   1.399       .  A
C135        H146   1.083       .  S
C136        C145   1.360       .  A
C136        C137   1.380       .  A
C137        C383   1.400       .  A
C137        O143   1.314       .  A
C138        C627   1.400       .  A
C138        C629   1.399       .  A
C138        H147   1.083   1_556  S
C139        C383   1.399       .  A
C139        C387   1.359       .  A
O140        C141   1.328       .  A
C141        C387   1.390       .  A
C142        C629   1.359       .  A
C142        C631   1.390       .  A
C142        H148   1.082   1_556  S
O143        C144   1.330       .  A
C144        C145   1.390       .  A
C145        H149   1.083       .  S
C150        C155   1.381       .  A
C150        C151   1.408       .  A
C150        O156   1.324       .  A
C151        C152   1.408       .  A
C151        H162   1.083       .  S
C152        C161   1.366       .  A
C152        C153   1.380       .  A
C153        C154   1.398       .  A
C153        O159   1.316       .  A
C154        C155   1.398       .  A
C154        H163   1.084       .  S
C155        C158   1.355       .  A
O156        C157   1.333       .  A
C157        C158   1.387       .  A
C158        H409   1.084       .  S
O159        C160   1.330       .  A
C160        C161   1.396       .  A
C161        H165   1.082       .  S
H164        C648   1.084   1_554  S
C166        C171   1.380       .  A
C166        C167   1.406       .  A
C166        O172   1.318       .  A
C167        C168   1.403       .  A
C167        H178   1.083       .  S
C168        C177   1.366       .  A
C168        C169   1.378       .  A
C169        C415   1.403       .  A
C169        O420   1.314       .  A
C170        C659   1.403       .  A
C170        C661   1.401       .  A
C170        H179   1.083       .  S
C171        C174   1.363       .  A
C171        C415   1.401       .  A
O172        C173   1.333       .  A
C173        C174   1.391       .  A
C174        H425   1.082       .  S
O175        C659   1.314       .  A
O175        C666   1.332       .  A
C176        C177   1.395       .  A
C176        O420   1.332       .  A
C177        H181   1.083       .  S
H180        C664   1.082       .  S
C182        C187   1.381       .  A
C182        C183   1.402       .  A
C182        O188   1.321       .  A
C183        C184   1.403       .  A
C183        H194   1.082       .  S
C184        C193   1.356       .  A
C184        C185   1.380       .  A
C185        C186   1.403       .  A
C185        O191   1.323       .  A
C186        C187   1.405       .  A
C186        H195   1.082       .  S
C187        C190   1.358       .  A
O188        C189   1.330       .  A
C189        C190   1.395       .  A
C189        C249   1.483       .  S
C190        H441   1.082       .  S
O191        C192   1.331       .  A
C192        C193   1.393       .  A
C193        H197   1.083       .  S
H196        C680   1.082   1_554  S
C198        C203   1.381       .  A
C198        C199   1.402       .  A
C198        O204   1.319       .  A
C199        C200   1.402       .  A
C199        H210   1.083       .  S
C200        C209   1.358       .  A
C200        C201   1.381       .  A
C201        C447   1.399       .  A
C201        O452   1.316       .  A
C202        C691   1.399       .  A
C202        C693   1.399       .  A
C202        H211   1.083       .  S
C203        C206   1.355       .  A
C203        C447   1.399       .  A
O204        C205   1.330       .  A
C205        C206   1.390       .  A
C206        H457   1.083       .  S
O207        C691   1.316       .  A
O207        C698   1.328       .  A
C208        C209   1.394       .  A
C208        O452   1.328       .  A
C209        H213   1.083   1_565  S
H212        C696   1.083       .  S
C214        C219   1.382       .  A
C214        C460   1.405       .  A
C214        O465   1.318       .  A
C215        C704   1.405       .  A
C215        C706   1.403       .  A
C215        H226   1.084   1_556  S
C216        C225   1.365       .  A
C216        C217   1.380       .  A
C216        C460   1.403       .  A
C217        C218   1.397       .  A
C217        O223   1.311       .  A
C218        C219   1.395       .  A
C218        H227   1.084       .  S
C219        C222   1.356       .  A
O220        C704   1.318       .  A
O220        C711   1.331       .  A
C221        C222   1.387       .  A
C221        O465   1.331       .  A
C222        H228   1.083       .  S
O223        C224   1.329       .  A
C224        C225   1.393       .  A
C225        H474   1.083       .  S
H229        C715   1.083   1_554  S
C230        C235   1.380       .  A
C230        C476   1.403       .  A
C230        O236   1.322       .  A
C231        C720   1.403       .  A
C231        C722   1.404       .  A
C231        H242   1.080   1_556  S
C232        C233   1.379       .  A
C232        C476   1.404       .  A
C232        C486   1.358       .  A
C233        C234   1.405       .  A
C233        O239   1.323       .  A
C234        C235   1.406       .  A
C234        H243   1.081       .  S
C235        C238   1.361       .  A
O236        C237   1.331       .  A
C237        C238   1.394       .  A
C238        H244   1.082       .  S
O239        C240   1.332       .  A
C240        C486   1.395       .  A
C240        C247   1.488       .  S
C241        C722   1.358       .  A
C241        C730   1.395       .  A
C241        H245   1.079   1_546  S
C246        C492   1.419   1_565  A
C246        C251   1.395       .  A
C246        C466   1.469       .  S
C247        C248   1.407       .  A
C248        C249   1.407       .  A
C248        H253   1.083       .  S
C250        C494   1.419   1_565  A
C250        C251   1.397       .  A
C250        C453   1.478       .  S
C251        H252   1.083       .  S
C254        C255   1.531       .  S
C254        C260   1.528       .  S
C254        C258   1.531       .  S
C254        C469   1.503       .  S
C255        H262   1.086       .  S
C255        C256   1.367       .  D
C256        C257   1.546       .  S
C256        C286   1.474       .  S
C257        C261   1.549       .  S
C257        C259   1.537       .  S
C257        H263   1.110       .  S
C258        H264   1.086       .  S
C258        C259   1.360       .  D
C259        C266   1.470       .  S
C260        H265   1.086       .  S
C260        C261   1.367       .  D
C261        C418   1.478       .  S
C266        C303   1.462       .  S
C266        N284   1.346       .  A
N267        N284   1.318       .  A
N267        N289   1.320       .  A
N267       Co304   2.074       .  S
C268        C306   1.461       .  S
C268        H313   1.081       .  S
C268        N538   1.347       .  A
H269        C310   1.081       .  S
C270        C274   1.456       .  S
C270        H299   1.081       .  S
C270        N294   1.331       .  A
Co271       N289   2.093   1_455  S
Co271       N279   2.068       .  S
Co271       N311   2.084   1_455  S
Co271       N287   2.074       .  S
Co271      Cl315   2.437       .  S
N272        C310   1.346       .  A
N272        N279   1.321       .  A
N272       Co273   2.099       .  S
Co273       N276   2.102   1_565  S
Co273       N293   2.092       .  S
Co273       N280   2.102   1_565  S
Co273      Cl315   2.477       .  S
C274        C345   1.483       .  S
C274        N312   1.356       .  A
N275        N282   1.319       .  A
N275        N305   1.321       .  A
N275       Co308   2.074       .  S
N276        N294   1.320       .  A
N276        N312   1.333       .  A
N277        C306   1.346       .  A
N277        N532   1.318       .  A
H278        C303   1.081       .  S
N279        N300   1.320       .  A
N280        N298   1.320       .  A
C281        C309   1.455       .  S
C281        C348   1.480       .  S
C281        N285   1.355       .  A
N282        C297   1.349       .  A
N282       Co304   2.099   1_545  S
C283        C286   1.458       .  S
C283        H317   1.080       .  S
C283        N556   1.344       .  A
N285        N525   1.331       .  A
C286        N307   1.350       .  A
N287        N293   1.321       .  A
N288        N290   1.320       .  A
N288       Co304   2.094   1_545  S
N289        C303   1.348       .  A
N290        N318   1.322       .  A
N290       Co308   2.084       .  S
H291        C314   1.081       .  S
H292        C309   1.081       .  S
N294       Co308   2.076   1_455  S
N295        N311   1.320       .  A
N295       Co304   2.086       .  S
C296        C310   1.464       .  S
C296        C336   1.470       .  S
C296        N300   1.344       .  A
C297        C316   1.466       .  S
C297        H301   1.081       .  S
N298       Co308   2.077   1_455  S
C302        C314   1.463       .  S
C302        C321   1.478       .  S
C302        N563   1.348       .  A
Co304      Cl315   2.463   1_655  S
N305        C316   1.347       .  A
C306        C333   1.468       .  S
N307        N540   1.324       .  A
Co308      Cl315   2.427   1_645  S
C309        N543   1.334       .  A
C314        N533   1.348       .  A
C316        C324   1.478       .  S
C319        C320   1.535       .  S
C319        C325   1.528       .  S
C319        C323   1.529       .  S
C319        C405   1.511       .  S
C320        H327   1.086       .  S
C320        C321   1.366       .  D
C321        C322   1.542       .  S
C322        C326   1.548       .  S
C322        C324   1.546       .  S
C322        H328   1.111       .  S
C323        H329   1.086       .  S
C323        C324   1.368       .  D
C325        H330   1.086       .  S
C325        C326   1.367       .  D
C326        C482   1.481       .  S
C331        C332   1.526       .  S
C331        C337   1.525       .  S
C331        C335   1.533       .  S
C331        C389   1.501       .  S
C332        H339   1.087       .  S
C332        C333   1.363       .  D
C333        C334   1.541       .  S
C334        C338   1.541       .  S
C334        C336   1.537       .  S
C334        H340   1.111       .  S
C335        H341   1.086       .  S
C335        C336   1.369       .  D
C337        H342   1.086       .  S
C337        C338   1.366       .  D
C338        C450   1.470       .  S
C343        C344   1.526       .  S
C343        C349   1.520       .  S
C343        C347   1.528       .  S
C343        C370   1.504       .  S
C344        H351   1.086       .  S
C344        C345   1.364       .  D
C345        C346   1.551       .  S
C346        C350   1.556       .  S
C346        C348   1.546       .  S
C346        H352   1.111       .  S
C347        H353   1.086       .  S
C347        C348   1.367       .  D
C349        H354   1.086       .  S
C349        C350   1.367       .  D
C350        C437   1.478       .  S
C355        C356   1.421   1_455  A
C355        C360   1.395       .  A
C355        C386   1.468       .  S
C356        C357   1.410       .  A
C356        C421   1.492       .  S
C357        C358   1.404       .  A
C357        H362   1.082       .  S
C358        C359   1.414   1_655  A
C358        C402   1.477       .  S
C359        C360   1.394       .  A
C359        C373   1.474       .  S
C360        H361   1.084       .  S
C363        C368   1.380       .  A
C363        C364   1.397       .  A
C363        O369   1.312       .  A
C364        C365   1.395       .  A
C364        H375   1.084       .  S
C365        C374   1.354       .  A
C365        C366   1.381       .  A
C366        C367   1.405       .  A
C366        O372   1.320       .  A
C367        C368   1.404       .  A
C367        H376   1.084       .  S
C368        C371   1.364       .  A
O369        C370   1.328       .  A
C370        C371   1.393       .  A
C371        H377   1.083       .  S
O372        C373   1.332       .  A
C373        C374   1.388       .  A
C374        H378   1.083       .  S
C379        C384   1.382       .  A
C379        C380   1.401       .  A
C379        O385   1.316       .  A
C380        C381   1.399       .  A
C380        H391   1.083       .  S
C381        C390   1.360       .  A
C381        C382   1.380       .  A
C382        C628   1.400       .  A
C382        O388   1.314       .  A
C383        H392   1.083       .  S
C384        C628   1.399       .  A
C384        C632   1.359       .  A
O385        C386   1.328       .  A
C386        C632   1.390       .  A
C387        H393   1.082       .  S
O388        C389   1.330       .  A
C389        C390   1.390       .  A
C390        H394   1.083       .  S
C395        C400   1.381       .  A
C395        C396   1.408       .  A
C395        O401   1.324       .  A
C396        C397   1.408       .  A
C396        H407   1.083       .  S
C397        C406   1.366       .  A
C397        C398   1.380       .  A
C398        C399   1.398       .  A
C398        O404   1.316       .  A
C399        C400   1.398       .  A
C399        H408   1.084       .  S
C400        C403   1.355       .  A
O401        C402   1.333       .  A
C402        C403   1.387       .  A
C403        H654   1.084       .  S
O404        C405   1.330       .  A
C405        C406   1.396       .  A
C406        H410   1.082       .  S
C411        C416   1.380       .  A
C411        C412   1.406       .  A
C411        O417   1.318       .  A
C412        C413   1.403       .  A
C412        H423   1.083       .  S
C413        C422   1.366       .  A
C413        C414   1.378       .  A
C414        C660   1.403       .  A
C414        O665   1.314       .  A
C415        H424   1.083       .  S
C416        C660   1.401       .  A
C416        C419   1.363       .  A
O417        C418   1.333       .  A
C418        C419   1.391       .  A
C419        H670   1.082       .  S
C421        C422   1.395       .  A
C421        O665   1.332       .  A
C422        H426   1.083       .  S
C427        C432   1.381       .  A
C427        C428   1.402       .  A
C427        O433   1.321       .  A
C428        C429   1.403       .  A
C428        H439   1.082       .  S
C429        C438   1.356       .  A
C429        C430   1.380       .  A
C430        C431   1.403       .  A
C430        O436   1.323       .  A
C431        C432   1.405       .  A
C431        H440   1.082       .  S
C432        C435   1.358       .  A
O433        C434   1.330       .  A
C434        C435   1.395       .  A
C434        C494   1.483       .  S
C435        H686   1.082       .  S
O436        C437   1.331       .  A
C437        C438   1.393       .  A
C438        H442   1.083       .  S
C443        C448   1.381       .  A
C443        C444   1.402       .  A
C443        O449   1.319       .  A
C444        C445   1.402       .  A
C444        H455   1.083       .  S
C445        C454   1.358       .  A
C445        C446   1.381       .  A
C446        C692   1.399       .  A
C446        O697   1.316       .  A
C447        H456   1.083       .  S
C448        C692   1.399       .  A
C448        C451   1.355       .  A
O449        C450   1.330       .  A
C450        C451   1.390       .  A
C451        H702   1.083       .  S
C453        C454   1.394       .  A
C453        O697   1.328       .  A
C454        H458   1.083   1_565  S
C459        C464   1.382       .  A
C459        C705   1.405       .  A
C459        O710   1.318       .  A
C460        H471   1.084       .  S
C461        C705   1.403       .  A
C461        C470   1.365       .  A
C461        C462   1.380       .  A
C462        C463   1.397       .  A
C462        O468   1.311       .  A
C463        C464   1.395       .  A
C463        H472   1.084       .  S
C464        C467   1.356       .  A
C466        C467   1.387       .  A
C466        O710   1.331       .  A
C467        H473   1.083       .  S
O468        C469   1.329       .  A
C469        C470   1.393       .  A
C470        H719   1.083       .  S
C475        C480   1.380       .  A
C475        C721   1.403       .  A
C475        O481   1.322       .  A
C476        H487   1.080       .  S
C477        C721   1.404       .  A
C477        C731   1.358       .  A
C477        C478   1.379       .  A
C478        C479   1.405       .  A
C478        O484   1.323       .  A
C479        C480   1.406       .  A
C479        H488   1.081       .  S
C480        C483   1.361       .  A
O481        C482   1.331       .  A
C482        C483   1.394       .  A
C483        H489   1.082       .  S
O484        C485   1.332       .  A
C485        C731   1.395       .  A
C485        C492   1.488       .  S
C486        H490   1.079   1_545  S
C491        C496   1.395       .  A
C491        C711   1.469       .  S
C492        C493   1.408       .  A
C493        C494   1.407       .  A
C493        H498   1.083       .  S
C495        C496   1.397       .  A
C495        C698   1.478       .  S
C496        H497   1.083       .  S
C499        C500   1.531       .  S
C499        C505   1.528       .  S
C499        C503   1.531       .  S
C499        C714   1.503       .  S
C500        H507   1.086   1_556  S
C500        C501   1.367       .  D
C501        C502   1.546       .  S
C501        C531   1.474   1_556  S
C502        C506   1.549       .  S
C502        C504   1.537       .  S
C502        H508   1.110       .  S
C503        H509   1.086       .  S
C503        C504   1.360       .  D
C504        C511   1.470       .  S
C505        H510   1.086       .  S
C505        C506   1.367       .  D
C506        C663   1.478       .  S
C511        C548   1.462       .  S
C511        N529   1.346       .  A
N512        N529   1.318       .  A
N512        N534   1.320       .  A
N512       Co549   2.074       .  S
C513        C551   1.461       .  S
C513        H558   1.081       .  S
H514        C555   1.081       .  S
C515        C519   1.456       .  S
C515        H544   1.081       .  S
C515        N539   1.331       .  A
Co516       N534   2.093   1_455  S
Co516       N524   2.068       .  S
Co516       N556   2.084   1_455  S
Co516       N532   2.074       .  S
Co516      Cl560   2.437       .  S
N517        C555   1.346       .  A
N517        N524   1.321       .  A
N517       Co518   2.099       .  S
Co518       N521   2.102   1_565  S
Co518       N538   2.092       .  S
Co518       N525   2.102   1_565  S
Co518      Cl560   2.477       .  S
C519        C590   1.483       .  S
C519        N557   1.356       .  A
N520        N527   1.319       .  A
N520        N550   1.321       .  A
N520       Co553   2.074       .  S
N521        N539   1.320       .  A
N521        N557   1.333       .  A
N522        C551   1.346       .  A
H523        C548   1.081       .  S
N524        N545   1.320       .  A
N525        N543   1.320       .  A
C526        C554   1.455       .  S
C526        C593   1.480   1_554  S
C526        N530   1.355       .  A
N527        C542   1.349       .  A
N527       Co549   2.099   1_545  S
C528        C531   1.458       .  S
C528        H562   1.080       .  S
C531        N552   1.350       .  A
N532        N538   1.321       .  A
N533        N535   1.320       .  A
N533       Co549   2.094   1_545  S
N534        C548   1.348       .  A
N535        N563   1.322       .  A
N535       Co553   2.084       .  S
H536        C559   1.081       .  S
H537        C554   1.081       .  S
N539       Co553   2.076   1_455  S
N540        N556   1.320       .  A
N540       Co549   2.086       .  S
C541        C555   1.464       .  S
C541        C581   1.470       .  S
C541        N545   1.344       .  A
C542        C561   1.466       .  S
C542        H546   1.082       .  S
N543       Co553   2.077   1_455  S
C547        C559   1.463       .  S
C547        C566   1.478   1_554  S
Co549      Cl560   2.463   1_655  S
N550        C561   1.347       .  A
C551        C578   1.468   1_554  S
Co553      Cl560   2.427   1_645  S
C561        C569   1.478       .  S
C564        C565   1.535       .  S
C564        C570   1.528       .  S
C564        C568   1.529       .  S
C564        C650   1.511       .  S
C565        H572   1.086   1_556  S
C565        C566   1.366       .  D
C566        C567   1.542       .  S
C567        C571   1.548       .  S
C567        C569   1.546       .  S
C567        H573   1.111       .  S
C568        H574   1.086       .  S
C568        C569   1.368       .  D
C570        H575   1.086       .  S
C570        C571   1.367       .  D
C571        C727   1.481       .  S
C576        C577   1.526       .  S
C576        C582   1.525       .  S
C576        C580   1.533       .  S
C576        C634   1.501       .  S
C577        H584   1.087   1_556  S
C577        C578   1.363       .  D
C578        C579   1.541       .  S
C579        C583   1.541       .  S
C579        C581   1.537       .  S
C579        H585   1.111       .  S
C580        H586   1.086       .  S
C580        C581   1.369       .  D
C582        H587   1.086       .  S
C582        C583   1.366       .  D
C583        C695   1.470       .  S
C588        C589   1.526       .  S
C588        C594   1.520       .  S
C588        C592   1.528       .  S
C588        C615   1.504       .  S
C589        H596   1.086       .  S
C589        C590   1.364       .  D
C590        C591   1.551       .  S
C591        C595   1.556       .  S
C591        C593   1.546       .  S
C591        H597   1.111       .  S
C592        H598   1.086   1_556  S
C592        C593   1.367       .  D
C594        H599   1.086       .  S
C594        C595   1.367       .  D
C595        C682   1.478       .  S
C600        C601   1.421   1_455  A
C600        C605   1.395       .  A
C600        C631   1.468       .  S
C601        C602   1.410       .  A
C601        C666   1.492       .  S
C602        C603   1.404       .  A
C602        H607   1.082       .  S
C603        C604   1.414   1_655  A
C603        C647   1.477       .  S
C604        C605   1.394       .  A
C604        C618   1.474       .  S
C605        H606   1.084       .  S
C608        C613   1.380       .  A
C608        C609   1.397       .  A
C608        O614   1.312       .  A
C609        C610   1.395       .  A
C609        H620   1.084       .  S
C610        C619   1.354       .  A
C610        C611   1.381       .  A
C611        C612   1.405       .  A
C611        O617   1.320       .  A
C612        C613   1.404       .  A
C612        H621   1.084   1_556  S
C613        C616   1.364       .  A
O614        C615   1.328       .  A
C615        C616   1.393       .  A
C616        H622   1.083   1_556  S
O617        C618   1.332       .  A
C618        C619   1.388       .  A
C619        H623   1.083       .  S
C624        C629   1.382       .  A
C624        C625   1.401       .  A
C624        O630   1.316       .  A
C625        C626   1.399       .  A
C625        H636   1.083       .  S
C626        C635   1.360       .  A
C626        C627   1.380       .  A
C627        O633   1.314       .  A
C628        H637   1.083       .  S
O630        C631   1.328       .  A
C632        H638   1.082       .  S
O633        C634   1.330       .  A
C634        C635   1.390       .  A
C635        H639   1.083       .  S
C640        C645   1.381       .  A
C640        C641   1.408       .  A
C640        O646   1.324       .  A
C641        C642   1.408       .  A
C641        H652   1.083       .  S
C642        C651   1.366       .  A
C642        C643   1.380       .  A
C643        C644   1.398       .  A
C643        O649   1.316       .  A
C644        C645   1.398       .  A
C644        H653   1.084   1_556  S
C645        C648   1.355       .  A
O646        C647   1.333       .  A
C647        C648   1.387       .  A
O649        C650   1.330       .  A
C650        C651   1.396       .  A
C651        H655   1.082       .  S
C656        C661   1.380       .  A
C656        C657   1.406       .  A
C656        O662   1.318       .  A
C657        C658   1.403       .  A
C657        H668   1.083       .  S
C658        C667   1.366       .  A
C658        C659   1.378       .  A
C660        H669   1.083       .  S
C661        C664   1.363       .  A
O662        C663   1.333       .  A
C663        C664   1.391       .  A
C666        C667   1.395       .  A
C667        H671   1.083       .  S
C672        C677   1.381       .  A
C672        C673   1.402       .  A
C672        O678   1.321       .  A
C673        C674   1.403       .  A
C673        H684   1.083       .  S
C674        C683   1.356       .  A
C674        C675   1.380       .  A
C675        C676   1.403       .  A
C675        O681   1.323       .  A
C676        C677   1.405       .  A
C676        H685   1.082   1_556  S
C677        C680   1.358       .  A
O678        C679   1.330       .  A
C679        C680   1.395       .  A
O681        C682   1.331       .  A
C682        C683   1.393       .  A
C683        H687   1.083       .  S
C688        C693   1.381       .  A
C688        C689   1.402       .  A
C688        O694   1.319       .  A
C689        C690   1.402       .  A
C689        H700   1.083       .  S
C690        C699   1.358       .  A
C690        C691   1.381       .  A
C692        H701   1.083       .  S
C693        C696   1.354       .  A
O694        C695   1.330       .  A
C695        C696   1.390       .  A
C698        C699   1.394       .  A
C699        H703   1.083   1_565  S
C704        C709   1.382       .  A
C705        H716   1.084       .  S
C706        C715   1.365       .  A
C706        C707   1.380       .  A
C707        C708   1.397       .  A
C707        O713   1.311       .  A
C708        C709   1.395       .  A
C708        H717   1.084       .  S
C709        C712   1.356       .  A
C711        C712   1.387       .  A
C712        H718   1.083       .  S
O713        C714   1.329       .  A
C714        C715   1.393       .  A
C720        C725   1.380       .  A
C720        O726   1.322       .  A
C721        H732   1.080       .  S
C722        C723   1.379       .  A
C723        C724   1.405       .  A
C723        O729   1.323       .  A
C724        C725   1.406       .  A
C724        H733   1.081       .  S
C725        C728   1.361       .  A
O726        C727   1.331       .  A
C727        C728   1.394       .  A
C728        H734   1.082       .  S
O729        C730   1.332       .  A
C731        H735   1.079   1_545  S
