geometry optimzed in LAMMPS
_audit_creation_date              2020-11-30 
_audit_creation_method            'lammps2cif' 
_symmetry_space_group_name_H-M    'P1' 
_symmetry_Int_Tables_number       1 
_symmetry_cell_setting            triclinic 
loop_ 
_symmetry_equiv_pos_as_xyz 
  x,y,z 
_cell_length_a                    54.66608414 
_cell_length_b                    54.70347765328999 
_cell_length_c                    36.00374243325865 
_cell_angle_alpha                 90.30976953035459 
_cell_angle_beta                  89.92150806303266 
_cell_angle_gamma                 89.66875465681247 
loop_ 
_atom_site_label 
_atom_site_type_symbol 
_atom_site_fract_x 
_atom_site_fract_y 
_atom_site_fract_z 
_atom_site_charge 
C1          C  0.47003077  0.84050605  0.42469202     0.86400
C2          C  0.45545540  0.84988317  0.39124214    -0.53800
C3          C  0.44912316  0.87399519  0.39303269     0.09400
C4          C  0.45934285  0.88730482  0.42730442     0.20300
C5          C  0.49270239  0.85740943  0.42509544    -0.54500
C6          C  0.48714267  0.88196878  0.42693744     0.09500
C7          C  0.45530521  0.84859859  0.45927635    -0.54100
C8          C  0.44973978  0.87292689  0.46055867     0.10000
H9          H  0.44869245  0.83783889  0.36950213     0.14600
H10         H  0.45444196  0.90702612  0.42850983     0.00300
H11         H  0.51140313  0.85105192  0.42272926     0.14900
H12         H  0.45037004  0.83617657  0.48146573     0.14600
C13         C  0.47283050  0.65299328  0.41768451     0.86400
C14         C  0.46066155  0.63993797  0.45102778    -0.53800
C15         C  0.45568527  0.61564539  0.44563787     0.09400
C16         C  0.46413301  0.60619976  0.40745571     0.20300
C17         C  0.49592826  0.63750285  0.41054953    -0.54500
C18         C  0.49147188  0.61315992  0.40505842     0.09500
C19         C  0.45569299  0.64719159  0.38496304    -0.54100
C20         C  0.45105016  0.62292124  0.37976960     0.10000
H21         H  0.45599523  0.64850836  0.47715774     0.14600
H22         H  0.46029534  0.58666019  0.40203223     0.00300
H23         H  0.51428966  0.64496604  0.41117355     0.14900
H24         H  0.44664131  0.66132269  0.36882558     0.14600
C25         C  0.34217442  0.96418133  0.22943077     0.86400
C26         C  0.34937212  0.94618157  0.26005294    -0.53800
C27         C  0.37363566  0.94045676  0.26144225     0.09400
C28         C  0.38901501  0.95318616  0.23114535     0.20300
C29         C  0.35891428  0.98632069  0.23499178    -0.54500
C30         C  0.38331461  0.98074003  0.23576427     0.09500
C31         C  0.35206906  0.95166284  0.19375892    -0.54100
C32         C  0.37656255  0.94619379  0.19408272     0.10000
H33         H  0.33605270  0.93777010  0.27835174     0.14600
H34         H  0.40887989  0.94912313  0.23226360     0.00300
H35         H  0.35206987  0.00495885  0.23709324     0.14900
H36         H  0.34107690  0.94690910  0.16993057     0.14600
C37         C  0.15684644  0.96237097  0.25011253     0.86400
C38         C  0.14940002  0.94989076  0.21359509    -0.53800
C39         C  0.12542239  0.94345547  0.21155868     0.09400
C40         C  0.11058255  0.94980545  0.24675948     0.20300
C41         C  0.13885976  0.98395361  0.25489400    -0.54500
C42         C  0.11461199  0.97758287  0.25261726     0.09500
C43         C  0.14847191  0.94468455  0.28092486    -0.54100
C44         C  0.12460753  0.93776709  0.27887480     0.10000
H45         H  0.16226178  0.94614127  0.19121484     0.14600
H46         H  0.09108966  0.94428444  0.24543867     0.00300
H47         H  0.14470063  0.00258952  0.26007600     0.14900
H48         H  0.15988917  0.93800911  0.30321169     0.14600
C49         C  0.35044115  0.52159155  0.21248268     0.86400
C50         C  0.35759960  0.53377200  0.17556294    -0.53800
C51         C  0.38096302  0.54234094  0.17403377     0.09400
C52         C  0.39531473  0.53847035  0.21055215     0.20300
C53         C  0.37025025  0.50213339  0.21899499    -0.54500
C54         C  0.39372026  0.51061227  0.21770394     0.09500
C55         C  0.35552618  0.54191683  0.24096847    -0.54100
C56         C  0.37884830  0.55084164  0.24034258     0.10000
H57         H  0.34529771  0.53682703  0.15263679     0.14600
H58         H  0.41438549  0.54522918  0.21007390     0.00300
H59         H  0.36601469  0.48296460  0.22315652     0.14900
H60         H  0.34150439  0.54928350  0.25936291     0.14600
C61         C  0.16768121  0.51918755  0.22562056     0.86400
C62         C  0.16115310  0.53814348  0.25562162    -0.53800
C63         C  0.13735844  0.54545932  0.25553284     0.09400
C64         C  0.12170681  0.53287262  0.22596827     0.20300
C65         C  0.14970160  0.49814278  0.23281728    -0.54500
C66         C  0.12564373  0.50526831  0.23236382     0.09500
C67         C  0.15850940  0.52992318  0.18867914    -0.54100
C68         C  0.13449723  0.53751951  0.18838857     0.10000
H69         H  0.17452025  0.54578064  0.27469332     0.14600
H70         H  0.10256827  0.53916346  0.22810255     0.00300
H71         H  0.15476381  0.47914594  0.23629826     0.14900
H72         H  0.17031306  0.53048506  0.16448077     0.14600
C73         C  0.03524235  0.82978403  0.44564342     0.86400
C74         C  0.04880446  0.83672945  0.48172722    -0.53800
C75         C  0.05450457  0.86095897  0.48482627     0.09400
C76         C  0.04596066  0.87639065  0.45159631     0.20300
C77         C  0.01265729  0.84704520  0.44572402    -0.54500
C78         C  0.01827022  0.87136749  0.44896585     0.09500
C79         C  0.05108419  0.83973580  0.41394259    -0.54100
C80         C  0.05708607  0.86380527  0.41715465     0.10000
H81         H  0.05280954  0.82366629  0.50353371     0.14600
H82         H  0.05062820  0.89607042  0.45408837     0.00300
H83         H  0.99387214  0.84126702  0.44288964     0.14900
H84         H  0.05798924  0.82826409  0.39147036     0.14600
C85         C  0.03837401  0.64510254  0.42006738     0.86400
C86         C  0.05654722  0.63790513  0.38886454    -0.53800
C87         C  0.06452429  0.61427602  0.38979829     0.09400
C88         C  0.05355221  0.59945471  0.42175999     0.20300
C89         C  0.01774534  0.62626843  0.41691696    -0.54500
C90         C  0.02555941  0.60243648  0.41802404     0.09500
C91         C  0.05218693  0.63795937  0.45580260    -0.54100
C92         C  0.06003385  0.61414805  0.45698645     0.10000
H93         H  0.06468354  0.65060232  0.36954444     0.14600
H94         H  0.05992544  0.58014521  0.42214820     0.00300
H95         H  0.99856503  0.63132794  0.41471502     0.14900
H96         H  0.05466660  0.65055253  0.47881307     0.14600
In97       In  0.39088530  0.60809000  0.31459654     1.36900
C98         C  0.38525377  0.57235240  0.26363616     0.77500
O99         O  0.42864107  0.62319370  0.32280634    -0.60900
O100        O  0.41431244  0.60083321  0.36534250    -0.51800
C101        C  0.38636893  0.65417297  0.29191991     0.70200
O102        O  0.39684475  0.63805838  0.27196179    -0.46700
C103        C  0.35112632  0.59955881  0.35501944     0.74900
O104        O  0.37021784  0.58949293  0.26893566    -0.58500
O105        O  0.36851076  0.58427887  0.35302585    -0.48600
O106        O  0.40486701  0.57458092  0.28171392    -0.55000
C107        C  0.43123566  0.61481603  0.35497480     0.85100
O108        O  0.37741025  0.64603816  0.32161597    -0.56900
O109        O  0.35509936  0.61952682  0.33905721    -0.60200
In110      In  0.12546913  0.60441065  0.32382407     1.36900
C111        C  0.08519586  0.60660046  0.36587986     0.77500
O112        O  0.13499562  0.64336350  0.33429264    -0.60900
O113        O  0.11653249  0.63490132  0.28393444    -0.51800
C114        C  0.17244976  0.60222809  0.34231484     0.70200
O115        O  0.15562207  0.59884029  0.36599355    -0.46700
C116        C  0.12886220  0.56530175  0.28015540     0.74900
O117        O  0.10521525  0.59852693  0.37838352    -0.58500
O118        O  0.12179971  0.58573203  0.26804257    -0.48600
O119        O  0.08527756  0.61082803  0.33157976    -0.55000
C120        C  0.12593439  0.65116659  0.30440895     0.85100
O121        O  0.16480375  0.60728476  0.31026293    -0.56900
O122        O  0.13093925  0.56415631  0.31492117    -0.60200
In123      In  0.11291242  0.87802451  0.34481234     1.36900
C124        C  0.11552514  0.91840557  0.30385135     0.77500
O125        O  0.07303501  0.87267541  0.35684998    -0.60900
O126        O  0.09603057  0.88162671  0.40230292    -0.51800
C127        C  0.11184706  0.83172052  0.32263942     0.70200
O128        O  0.10705181  0.84908585  0.30065868    -0.46700
C129        C  0.16067030  0.87576189  0.35829782     0.74900
O130        O  0.10419062  0.89976455  0.29252714    -0.58500
O131        O  0.14555467  0.88267311  0.38297712    -0.48600
O132        O  0.12193183  0.91752000  0.33741181    -0.55000
C133        C  0.07534342  0.87430020  0.39159161     0.85100
O134        O  0.11675496  0.83837276  0.35536591    -0.56900
O135        O  0.15102240  0.86963333  0.32795203    -0.60200
In136      In  0.38747679  0.88209319  0.33073960     1.36900
C137        C  0.38204276  0.92127117  0.28725619     0.77500
O138        O  0.34931482  0.86780570  0.32731700    -0.60900
O139        O  0.35838343  0.88939090  0.37437843    -0.51800
C140        C  0.39140828  0.83601201  0.30733823     0.70200
O141        O  0.39332037  0.84230230  0.34096334    -0.46700
C142        C  0.42831784  0.88243058  0.37055330     0.74900
O143        O  0.39340800  0.90237642  0.27690102    -0.58500
O144        O  0.40777924  0.88743661  0.38474675    -0.48600
O145        O  0.37550614  0.92097773  0.32075225    -0.55000
C146        C  0.34213434  0.87751696  0.35720248     0.85100
O147        O  0.38777540  0.85353318  0.28517650    -0.56900
O148        O  0.42836085  0.88072496  0.33567004    -0.60200
C149        C  0.85167901  0.45890245  0.41419367     0.86400
C150        C  0.85783486  0.44721148  0.45202361    -0.53800
C151        C  0.88190076  0.44097461  0.45624381     0.09400
C152        C  0.89780658  0.44607738  0.42197641     0.20300
C153        C  0.86986637  0.48020162  0.41050508    -0.54500
C154        C  0.89403205  0.47355802  0.41420844     0.09500
C155        C  0.86100624  0.43976740  0.38584671    -0.54100
C156        C  0.88482809  0.43312073  0.38978544     0.10000
H157        H  0.84440747  0.44446183  0.47384420     0.14600
H158        H  0.91721604  0.44038295  0.42523893     0.00300
H159        H  0.86397471  0.49895627  0.40629574     0.14900
H160        H  0.84988559  0.43039626  0.36542146     0.14600
C161        C  0.66558615  0.46520287  0.41235149     0.86400
C162        C  0.65747584  0.44867316  0.38022712    -0.53800
C163        C  0.63299820  0.44386431  0.37930957     0.09400
C164        C  0.61832922  0.45669724  0.41041105     0.20300
C165        C  0.64973695  0.48832968  0.40836265    -0.54500
C166        C  0.62501302  0.48415386  0.40732809     0.09500
C167        C  0.65506728  0.45302208  0.44766583    -0.54100
C168        C  0.63063853  0.44842961  0.44658499     0.10000
H169        H  0.67035609  0.44024466  0.36098449     0.14600
H170        H  0.59842961  0.45277471  0.40964271     0.00300
H171        H  0.65748836  0.50644852  0.40624417     0.14900
H172        H  0.66523860  0.44931811  0.47278788     0.14600
C173        C  0.97986876  0.33590775  0.21857623     0.86400
C174        C  0.96802274  0.34548693  0.18226134    -0.53800
C175        C  0.96125879  0.36953743  0.18355396     0.09400
C176        C  0.96657759  0.38212297  0.22083902     0.20300
C177        C  0.00112201  0.35369953  0.22576684    -0.54500
C178        C  0.99413038  0.37785553  0.22694704     0.09500
C179        C  0.96082001  0.34218988  0.24836804    -0.54100
C180        C  0.95427327  0.36611516  0.25013519     0.10000
H181        H  0.96449038  0.33479478  0.15754670     0.14600
H182        H  0.96085228  0.40163615  0.22197585     0.00300
H183        H  0.02001054  0.34778530  0.22870775     0.14900
H184        H  0.95281151  0.32860969  0.26660541     0.14600
C185        C  0.97040459  0.15128496  0.24462117     0.86400
C186        C  0.94978674  0.14552475  0.27217535    -0.53800
C187        C  0.94364176  0.12141513  0.27411313     0.09400
C188        C  0.95928449  0.10472846  0.24903106     0.20300
C189        C  0.99177392  0.13461264  0.25728805    -0.54500
C190        C  0.98602562  0.11031772  0.25937251     0.09500
C191        C  0.96228510  0.13973843  0.20766145    -0.54100
C192        C  0.95636964  0.11561197  0.21003563     0.10000
H193        H  0.94057289  0.15953050  0.28863076     0.14600
H194        H  0.95436489  0.08508217  0.25034181     0.00300
H195        H  0.01024417  0.14057454  0.26269623     0.14900
H196        H  0.96073065  0.14992998  0.18194834     0.14600
C197        C  0.54192977  0.33800236  0.21313324     0.86400
C198        C  0.55966155  0.34580176  0.24387133    -0.53800
C199        C  0.56582523  0.36991286  0.24361401     0.09400
C200        C  0.55315637  0.38468215  0.21284039     0.20300
C201        C  0.51972482  0.35535648  0.21726611    -0.54500
C202        C  0.52551914  0.37974183  0.21811177     0.09500
C203        C  0.55396837  0.34695044  0.17674342    -0.54100
C204        C  0.55960689  0.37123655  0.17645001     0.10000
H205        H  0.56749354  0.33294355  0.26353241     0.14600
H206        H  0.55799958  0.40437013  0.21257184     0.00300
H207        H  0.50099244  0.34898211  0.21891071     0.14900
H208        H  0.55668613  0.33583807  0.15210343     0.14600
C209        C  0.53298655  0.15142875  0.23039471     0.86400
C210        C  0.54695252  0.14280244  0.19545123    -0.53800
C211        C  0.55111920  0.11794955  0.19229785     0.09400
C212        C  0.54144964  0.10430222  0.22698434     0.20300
C213        C  0.50977006  0.13579433  0.23161083    -0.54500
C214        C  0.51413940  0.11115413  0.23050421     0.09500
C215        C  0.54906703  0.14147239  0.26199262    -0.54100
C216        C  0.55373942  0.11704078  0.26014994     0.10000
H217        H  0.55361006  0.15613465  0.17587170     0.14600
H218        H  0.54355426  0.08441557  0.22766022     0.00300
H219        H  0.49149952  0.14357605  0.23362092     0.14900
H220        H  0.55898493  0.15277021  0.28155768     0.14600
C221        C  0.84733862  0.02172961  0.44601599     0.86400
C222        C  0.85545469  0.03802544  0.41391183    -0.53800
C223        C  0.87940141  0.04477326  0.41473994     0.09400
C224        C  0.89384218  0.03371650  0.44738884     0.20300
C225        C  0.86510333  0.99966484  0.44478180    -0.54500
C226        C  0.88956220  0.00572024  0.44520970     0.09500
C227        C  0.85551637  0.03550778  0.48144924    -0.54100
C228        C  0.87962569  0.04148349  0.48237074     0.10000
H229        H  0.84269210  0.04512516  0.39347924     0.14600
H230        H  0.91334419  0.03918425  0.44742513     0.00300
H231        H  0.85888610  0.98086356  0.44476600     0.14900
H232        H  0.84417303  0.03880518  0.50559372     0.14600
C233        C  0.66159418  0.02669775  0.41899153     0.86400
C234        C  0.65383698  0.04177210  0.45338668    -0.53800
C235        C  0.62935906  0.04743995  0.45571654     0.09400
C236        C  0.61496349  0.03829495  0.42153306     0.20300
C237        C  0.64425238  0.00457091  0.41846821    -0.54500
C238        C  0.61987943  0.01057100  0.41962492     0.09500
C239        C  0.65266568  0.04248329  0.38628019    -0.54100
C240        C  0.62854632  0.04878846  0.38779980     0.10000
H241        H  0.66699309  0.04722792  0.47434323     0.14600
H242        H  0.59516272  0.04227310  0.42166130     0.00300
H243        H  0.65076955  0.98579361  0.41787032     0.14900
H244        H  0.66414654  0.04997689  0.36473811     0.14600
In245      In  0.62261821  0.38323691  0.31503679     1.36900
C246        C  0.62398478  0.42402805  0.35512544     0.77500
O247        O  0.66063091  0.37866681  0.33489660    -0.60900
O248        O  0.65574399  0.38664874  0.27763199    -0.51800
C249        C  0.62335418  0.33677077  0.33464493     0.70200
O250        O  0.61515341  0.35318829  0.35638845    -0.46700
C251        C  0.58466322  0.37908016  0.26938667     0.74900
O252        O  0.61491722  0.40459595  0.36783852    -0.58500
O253        O  0.60467772  0.38809842  0.25867150    -0.48600
O254        O  0.62864143  0.42349483  0.32084076    -0.55000
C255        C  0.67060464  0.38267167  0.30398209     0.85100
O256        O  0.63044600  0.34433928  0.30344941    -0.56900
O257        O  0.58324885  0.37536495  0.30381129    -0.60200
In258      In  0.61604814  0.10658024  0.31904703     1.36900
C259        C  0.61941924  0.06804963  0.36293855     0.77500
O260        O  0.57565071  0.11116860  0.31639643    -0.60900
O261        O  0.59405183  0.09998720  0.26690006    -0.51800
C262        C  0.61574428  0.15436794  0.33244802     0.70200
O263        O  0.61294325  0.13881980  0.35803608    -0.46700
C264        C  0.66278687  0.10749041  0.30006437     0.74900
O265        O  0.61224640  0.08862454  0.37477759    -0.58500
O266        O  0.64674428  0.09924013  0.27799369    -0.48600
O267        O  0.62204808  0.06659663  0.32821450    -0.55000
C268        C  0.57447748  0.10758907  0.28183745     0.85100
O269        O  0.61826551  0.14521364  0.30038219    -0.56900
O270        O  0.65476901  0.11451182  0.33116463    -0.60200
In271      In  0.88937192  0.10547837  0.34975673     1.36900
C272        C  0.88760405  0.06495466  0.39064748     0.77500
O273        O  0.84959777  0.11012974  0.35968062    -0.60900
O274        O  0.86056747  0.09992796  0.30515575    -0.51800
C275        C  0.89654960  0.14795115  0.38391418     0.70200
O276        O  0.91280144  0.13140640  0.38341921    -0.46700
C277        C  0.92320270  0.11344075  0.29788531     0.74900
O278        O  0.89652751  0.08457510  0.40317510    -0.58500
O279        O  0.90474388  0.12684491  0.30283038    -0.48600
O280        O  0.88269852  0.06533919  0.35649139    -0.55000
C281        C  0.84306112  0.10446573  0.32724874     0.85100
O282        O  0.87622873  0.14149368  0.37086923    -0.56900
O283        O  0.92325646  0.09406264  0.31677401    -0.60200
In284      In  0.89931174  0.37305987  0.32517319     1.36900
C285        C  0.89468087  0.41334085  0.36618858     0.77500
O286        O  0.93907564  0.37055772  0.31161083    -0.60900
O287        O  0.91461694  0.37999373  0.26812544    -0.51800
C288        C  0.90503783  0.32717835  0.34833021     0.70200
O289        O  0.90743561  0.34535299  0.36983707    -0.46700
C290        C  0.85264273  0.36890024  0.30627278     0.74900
O291        O  0.90580236  0.39484100  0.37847923    -0.58500
O292        O  0.86857979  0.37688284  0.28411643    -0.48600
O293        O  0.88914287  0.41210127  0.33239104    -0.55000
C294        C  0.93593755  0.37385767  0.27735503     0.85100
O295        O  0.89982864  0.33280800  0.31531405    -0.56900
O296        O  0.86078479  0.36271396  0.33759299    -0.60200
C297        C  0.90760576  0.30123060  0.35992800    -0.12000
C298        C  0.90939890  0.29378652  0.39746701     0.03500
C299        C  0.90973788  0.26879756  0.40615360    -0.12600
C300        C  0.90896185  0.25094918  0.37810838     0.18300
C301        C  0.90801795  0.25830275  0.34074357    -0.09600
C302        C  0.90730061  0.28312902  0.33201793    -0.02600
H303        H  0.91051448  0.26323417  0.43496049     0.04800
C304        C  0.90778298  0.22474614  0.38797088     0.20300
H305        H  0.90618677  0.28823538  0.30304109     0.10000
C306        C  0.88560939  0.21518532  0.40082479    -0.15900
C307        C  0.88236514  0.18990471  0.40383945     0.03000
C308        C  0.90148719  0.17376561  0.39357101    -0.11300
C309        C  0.92443213  0.18350883  0.38433458    -0.01300
C310        C  0.92766504  0.20881606  0.38148719    -0.06400
H311        H  0.87038788  0.22736837  0.40677399     0.06000
H312        H  0.93936648  0.17144579  0.37643939     0.09400
Br313      Br  0.90670541  0.23514400  0.30051042    -0.06100
Br314      Br  0.91111748  0.31635747  0.43838234    -0.03100
Br315      Br  0.85124908  0.17839389  0.42108519    -0.00200
Br316      Br  0.95901731  0.22085390  0.36634691    -0.04600
C317        C  0.81694060  0.10351759  0.31658898    -0.12000
C318        C  0.79868321  0.09793083  0.34303906     0.03500
C319        C  0.77405384  0.09915984  0.33317798    -0.12600
C320        C  0.76697341  0.10548768  0.29717629     0.18300
C321        C  0.78497286  0.11052093  0.27038843    -0.09600
C322        C  0.80982268  0.10934444  0.28012546    -0.02600
H323        H  0.76022314  0.09524041  0.35386672     0.04800
C324        C  0.74053455  0.10753465  0.28944496     0.20300
H325        H  0.82354157  0.11372176  0.25950537     0.10000
C326        C  0.72819484  0.12874969  0.30100576    -0.15900
C327        C  0.70267030  0.12954884  0.30206319     0.03000
C328        C  0.68907221  0.10882768  0.29142569    -0.11300
C329        C  0.70136991  0.08818180  0.27733564    -0.01300
C330        C  0.72701376  0.08737446  0.27653921    -0.06400
H331        H  0.73848779  0.14432975  0.31095921     0.06000
H332        H  0.69112066  0.07211860  0.26927708     0.09400
Br333      Br  0.77624102  0.11990081  0.22091123    -0.06100
Br334      Br  0.80584543  0.08751143  0.39279102    -0.03100
Br335      Br  0.68726111  0.15922319  0.31917190    -0.00200
Br336      Br  0.74291695  0.05784241  0.26041348    -0.04600
C337        C  0.69750904  0.38205812  0.29940727    -0.12000
C338        C  0.71334589  0.38641051  0.32977435     0.03500
C339        C  0.73855128  0.38369435  0.32527496    -0.12600
C340        C  0.74860885  0.37672590  0.29105130     0.18300
C341        C  0.73305561  0.37274477  0.26052704    -0.09600
C342        C  0.70769172  0.37565465  0.26477344    -0.02600
H343        H  0.75046927  0.38685647  0.34883180     0.04800
C344        C  0.77531422  0.37270345  0.28907724     0.20300
H345        H  0.69586339  0.37201970  0.24129579     0.10000
C346        C  0.78541277  0.35309139  0.30886838    -0.15900
C347        C  0.81070711  0.35071321  0.31309739     0.03000
C348        C  0.82636568  0.36822861  0.29729611    -0.11300
C349        C  0.81631398  0.38703506  0.27561757    -0.01300
C350        C  0.79095422  0.38956236  0.27181016    -0.06400
H351        H  0.77347462  0.34001272  0.32214096     0.06000
H352        H  0.82812358  0.40070145  0.26351140     0.09400
Br353      Br  0.74555680  0.36190611  0.21340574    -0.06100
Br354      Br  0.70224260  0.39658639  0.37817233    -0.03100
Br355      Br  0.82272803  0.32318578  0.34067819    -0.00200
Br356      Br  0.77856472  0.41752741  0.24581440    -0.04600
C357        C  0.62438351  0.31057488  0.34381501    -0.12000
C358        C  0.64356986  0.29567624  0.33013198     0.03500
C359        C  0.64195965  0.27030307  0.33276896    -0.12600
C360        C  0.62152556  0.25936305  0.34907691     0.18300
C361        C  0.60334919  0.27421678  0.36559385    -0.09600
C362        C  0.60487189  0.29972457  0.36287213    -0.02600
H363        H  0.65632763  0.25898331  0.32087813     0.04800
C364        C  0.61878115  0.23259196  0.34569063     0.20300
H365        H  0.59015156  0.31098014  0.37384673     0.10000
C366        C  0.62288442  0.21760213  0.37653211    -0.15900
C367        C  0.62185879  0.19206658  0.37323764     0.03000
C368        C  0.61622727  0.18119890  0.33855481    -0.11300
C369        C  0.61199128  0.19643260  0.30786224    -0.01300
C370        C  0.61345265  0.22181907  0.31108163    -0.06400
H371        H  0.62754560  0.22580394  0.40303298     0.06000
H372        H  0.60774137  0.18857124  0.28096086     0.09400
Br373      Br  0.57547209  0.26044226  0.38993118    -0.06100
Br374      Br  0.67249843  0.30894363  0.30768362    -0.03100
Br375      Br  0.63018941  0.17335521  0.41639875    -0.00200
Br376      Br  0.60836211  0.24103944  0.26718648    -0.04600
C377        C  0.81955604  0.01626808  0.44358451    -0.12000
C378        C  0.80940825  0.00110320  0.41535035     0.03500
C379        C  0.78384816  0.99897686  0.41146957    -0.12600
C380        C  0.76767546  0.01215825  0.43448729     0.18300
C381        C  0.77746946  0.02723484  0.46229261    -0.09600
C382        C  0.80277650  0.02936418  0.46634415    -0.02600
H383        H  0.77652642  0.98768961  0.38936543     0.04800
C384        C  0.74082408  0.01233426  0.42712033     0.20300
H385        H  0.80867693  0.04284492  0.48614901     0.10000
C386        C  0.72457827  0.00280943  0.45341964    -0.15900
C387        C  0.69918044  0.00641140  0.45032906     0.03000
C388        C  0.68917583  0.01982474  0.42009915    -0.11300
C389        C  0.70581157  0.02786241  0.39257350    -0.01300
C390        C  0.73114168  0.02450445  0.39615245    -0.06400
H391        H  0.73180702  0.99336554  0.47743621     0.06000
H392        H  0.69985797  0.03753354  0.36827318     0.09400
Br393      Br  0.75701979  0.04731637  0.49357432    -0.06100
Br394      Br  0.82899296  0.98418946  0.37896784    -0.03100
Br395      Br  0.67954962  0.99338222  0.98983247    -0.00200
Br396      Br  0.75202187  0.03876118  0.35937918    -0.04600
C397        C  0.56356056  0.10650130  0.15839098    -0.12000
C398        C  0.57337761  0.08223599  0.15655414     0.03500
C399        C  0.58305670  0.07307441  0.12310244    -0.12600
C400        C  0.58633501  0.08795466  0.09198986     0.18300
C401        C  0.57806748  0.11233906  0.09410210    -0.09600
C402        C  0.56582769  0.12077148  0.12582688    -0.02600
H403        H  0.58890206  0.05413834  0.12181222     0.04800
C404        C  0.59769571  0.07759725  0.05746957     0.20300
H405        H  0.55840288  0.13901666  0.12426228     0.10000
C406        C  0.58597050  0.08114517  0.02328515    -0.15900
C407        C  0.59633148  0.07307668  0.48982696     0.03000
C408        C  0.61808034  0.05876215  0.49001590    -0.11300
C409        C  0.62924839  0.05436855  0.02473339    -0.01300
C410        C  0.61982331  0.06416711  0.05781621    -0.06400
H411        H  0.56875950  0.09102906  0.02242968     0.06000
H412        H  0.64557943  0.04320097  0.02659459     0.09400
Br413      Br  0.58431075  0.13585486  0.05572312    -0.06100
Br414      Br  0.57784093  0.06024084  0.19736657    -0.03100
Br415      Br  0.58058779  0.08537556  0.44615172    -0.00200
Br416      Br  0.63894437  0.05941038  0.10198921    -0.04600
C417        C  0.53637509  0.31030269  0.21544552    -0.12000
C418        C  0.52189599  0.30025823  0.24444426     0.03500
C419        C  0.51842449  0.27486834  0.24690891    -0.12600
C420        C  0.53020818  0.25852223  0.22252973     0.18300
C421        C  0.54533156  0.26818374  0.19461229    -0.09600
C422        C  0.54825688  0.29350807  0.19130626    -0.02600
H423        H  0.50690658  0.26776644  0.26879850     0.04800
C424        C  0.52749923  0.23151464  0.22726661     0.20300
H425        H  0.56116361  0.29951911  0.17071871     0.10000
C426        C  0.51804274  0.21727906  0.19811590    -0.15900
C427        C  0.51788234  0.19161595  0.19985155     0.03000
C428        C  0.52816880  0.17935718  0.23086804    -0.11300
C429        C  0.53483973  0.19398813  0.26169557    -0.01300
C430        C  0.53477805  0.21955394  0.26003080    -0.06400
H431        H  0.51111414  0.22621724  0.17346262     0.06000
H432        H  0.54021302  0.18598915  0.28771901     0.09400
Br433      Br  0.56411006  0.24756175  0.16176650    -0.06100
Br434      Br  0.50750850  0.31955009  0.28362014    -0.03100
Br435      Br  0.50335169  0.17462169  0.15864281    -0.00200
Br436      Br  0.54588161  0.23690866  0.30321408    -0.04600
C437        C  0.94603683  0.10213001  0.17829380    -0.12000
C438        C  0.96085502  0.09349092  0.14902187     0.03500
C439        C  0.95004418  0.08320867  0.11745528    -0.12600
C440        C  0.92449616  0.08178785  0.11434342     0.18300
C441        C  0.90974306  0.08976327  0.14430589    -0.09600
C442        C  0.92061235  0.09975990  0.17600248    -0.02600
H443        H  0.96158224  0.07657653  0.09503084     0.04800
C444        C  0.91355805  0.07157439  0.08005296     0.20300
H445        H  0.90913989  0.10650003  0.19844567     0.10000
C446        C  0.89985830  0.05009130  0.08243646    -0.12700
C447        C  0.88875483  0.04004117  0.05105716     0.03000
C448        C  0.89122837  0.05161356  0.51620829    -0.11300
C449        C  0.90558599  0.07267650  0.51355228    -0.01300
C450        C  0.91675393  0.08270869  0.04510763    -0.06400
H451        H  0.89798729  0.04095041  0.10891087     0.06000
H452        H  0.90791028  0.08149825  0.48691255     0.09400
Br453      Br  0.87466635  0.08881001  0.14257589    -0.06100
Br454      Br  0.99580795  0.09549212  0.15085943    -0.03100
Br455      Br  0.87242771  0.00928840  0.05717518    -0.00200
Br456      Br  0.93545625  0.11200777  0.03914613    -0.04600
C457        C  0.97495782  0.17899135  0.24110903    -0.12000
C458        C  0.95564084  0.19521016  0.23102478     0.03500
C459        C  0.95984275  0.22033408  0.22803717    -0.12600
C460        C  0.98315130  0.23015801  0.23357351     0.18300
C461        C  0.00245532  0.21442165  0.24330905    -0.09600
C462        C  0.99831149  0.18929463  0.24719247    -0.02600
H463        H  0.94481560  0.23233818  0.22056868     0.04800
C464        C  0.98679993  0.25677919  0.22798506     0.20300
H465        H  0.01390475  0.17822193  0.25426931     0.10000
C466        C  0.99288439  0.27183662  0.25812773    -0.15900
C467        C  0.99331689  0.29735058  0.25451507     0.03000
C468        C  0.98659470  0.30850636  0.22033345    -0.11300
C469        C  0.98320831  0.29293306  0.18937404    -0.01300
C470        C  0.98295599  0.26750601  0.19309400    -0.06400
H471        H  0.99648338  0.26374048  0.28498369     0.06000
H472        H  0.98010783  0.30000020  0.16196889     0.09400
Br473      Br  0.03519600  0.22620421  0.24955566    -0.06100
Br474      Br  0.92292170  0.18468217  0.21974201    -0.03100
Br475      Br  0.00174116  0.31561017  0.29838702    -0.00200
Br476      Br  0.97676147  0.24812005  0.14954058    -0.04600
C477        C  0.56932814  0.38348783  0.14280553    -0.12000
C478        C  0.55671128  0.38251988  0.10861015     0.03500
C479        C  0.56690777  0.39305381  0.07689552    -0.12600
C480        C  0.58969609  0.40453416  0.07834230     0.18300
C481        C  0.60218576  0.40595881  0.11252186    -0.09600
C482        C  0.59187780  0.39560923  0.14450357    -0.02600
H483        H  0.55703440  0.39221016  0.05084471     0.04800
C484        C  0.59975221  0.41522201  0.04387384     0.20300
H485        H  0.60172835  0.39654863  0.17056285     0.10000
C486        C  0.59090562  0.43791251  0.03178101    -0.15900
C487        C  0.59976943  0.44852186  0.99913404     0.03000
C488        C  0.61807075  0.43652846  0.47829667    -0.11300
C489        C  0.62646910  0.41344705  0.98989067    -0.01300
C490        C  0.61719363  0.40264284  0.02213440    -0.06400
H491        H  0.57714682  0.44750073  0.04802375     0.06000
H492        H  0.64036460  0.40389445  0.47411660     0.09400
Br493      Br  0.63330972  0.42175983  0.11658393    -0.06100
Br494      Br  0.52501846  0.36793816  0.10373311    -0.03100
Br495      Br  0.58692883  0.47989412  0.98598204    -0.00200
Br496      Br  0.62839520  0.37052592  0.03514159    -0.04600
C497        C  0.89200757  0.43120491  0.49127768    -0.12000
C498        C  0.89107784  0.40612500  0.99940889     0.03500
C499        C  0.90138541  0.39736471  0.03241539    -0.12600
C500        C  0.91316466  0.41328605  0.05721505     0.18300
C501        C  0.91446791  0.43834436  0.04871350    -0.09600
C502        C  0.90355789  0.44718739  0.01621086    -0.02600
H503        H  0.90076657  0.37798022  0.03832852     0.04800
C504        C  0.92543477  0.40312003  0.09040830     0.20300
H505        H  0.90442858  0.46652616  0.01009979     0.10000
C506        C  0.95000006  0.39584356  0.08764859    -0.15900
C507        C  0.96202734  0.38518806  0.11785123     0.03000
C508        C  0.94952033  0.38197722  0.15172714    -0.11300
C509        C  0.92508589  0.38970713  0.15475855    -0.01300
C510        C  0.91291079  0.39994526  0.12425920    -0.06400
H511        H  0.95976053  0.39821836  0.06171485     0.06000
H512        H  0.91525831  0.38711027  0.18058559     0.09400
Br513      Br  0.93184930  0.46084045  0.07989930    -0.06100
Br514      Br  0.87704843  0.38311959  0.46531787    -0.03100
Br515      Br  0.99560826  0.37561865  0.11159956    -0.00200
Br516      Br  0.87906980  0.40865254  0.12965403    -0.04600
C517        C  0.69359312  0.46926449  0.41242453    -0.12000
C518        C  0.70561655  0.48387934  0.38544065     0.03500
C519        C  0.73119820  0.48652441  0.38615931    -0.12600
C520        C  0.74561248  0.47406681  0.41221442     0.18300
C521        C  0.73406030  0.45886827  0.43799820    -0.09600
C522        C  0.70865496  0.45642659  0.43776633    -0.02600
H523        H  0.74003898  0.49750887  0.36515392     0.04800
C524        C  0.77272437  0.47402929  0.40912230     0.20300
H525        H  0.70134064  0.44306980  0.45650332     0.10000
C526        C  0.78712427  0.48491003  0.43680675    -0.15900
C527        C  0.81265079  0.48150764  0.43754992     0.03000
C528        C  0.82440493  0.46643346  0.41052480    -0.11300
C529        C  0.80971508  0.45772661  0.38091341    -0.01300
C530        C  0.78436624  0.46094682  0.38048401    -0.06400
H531        H  0.77834404  0.49545842  0.45868840     0.06000
H532        H  0.81728780  0.44799078  0.35740086     0.09400
Br533      Br  0.75242284  0.43920228  0.47225568    -0.06100
Br534      Br  0.68894760  0.49917893  0.34467214    -0.03100
Br535      Br  0.83009867  0.49770704  0.97673972    -0.00200
Br536      Br  0.76614383  0.44537388  0.34147500    -0.04600
C537        C  0.18750451  0.87483321  0.36394344    -0.12000
C538        C  0.20392368  0.87606745  0.33357328     0.03500
C539        C  0.22908665  0.87481059  0.33972658    -0.12600
C540        C  0.23855567  0.87221163  0.37557245     0.18300
C541        C  0.22241182  0.87069702  0.40590473    -0.09600
C542        C  0.19706237  0.87222665  0.39999869    -0.02600
H543        H  0.24147077  0.87603529  0.31628382     0.04800
C544        C  0.26545063  0.87178641  0.37979642     0.20300
H545        H  0.18480193  0.87091663  0.42355499     0.10000
C546        C  0.27764900  0.89361248  0.38822654    -0.15900
C547        C  0.30304607  0.89545628  0.38360694     0.03000
C548        C  0.31649811  0.87527278  0.36976763    -0.11300
C549        C  0.30438994  0.85304662  0.36351346    -0.01300
C550        C  0.27912873  0.85113342  0.36881325    -0.06400
H551        H  0.26719247  0.90967437  0.39628278     0.06000
H552        H  0.31451167  0.83729457  0.35329805     0.09400
Br553      Br  0.23424354  0.86557420  0.45534036    -0.06100
Br554      Br  0.19368996  0.88049798  0.28293457    -0.03100
Br555      Br  0.31775500  0.92672966  0.39227474    -0.00200
Br556      Br  0.26376314  0.82031326  0.35913728    -0.04600
C557        C  0.12554274  0.67743481  0.29541262    -0.12000
C558        C  0.14515320  0.69277682  0.30535187     0.03500
C559        C  0.14244110  0.71812437  0.30305170    -0.12600
C560        C  0.12036807  0.72856312  0.29111665     0.18300
C561        C  0.10148891  0.71330545  0.27837925    -0.09600
C562        C  0.10421070  0.68785962  0.28043597    -0.02600
H563        H  0.15715662  0.72979800  0.31247632     0.04800
C564        C  0.11627822  0.75492143  0.29771813     0.20300
H565        H  0.08905631  0.67628593  0.27248955     0.10000
C566        C  0.11849413  0.77175853  0.26866090    -0.15900
C567        C  0.11656611  0.79699780  0.27558136     0.03000
C568        C  0.11208194  0.80552785  0.31212775    -0.11300
C569        C  0.10939499  0.78842545  0.34076501    -0.01300
C570        C  0.11157849  0.76343886  0.33393330    -0.06400
H571        H  0.12247570  0.76527745  0.24080592     0.06000
H572        H  0.10604310  0.79453350  0.36895096     0.09400
Br573      Br  0.07113352  0.72649397  0.26069162    -0.06100
Br574      Br  0.17592228  0.68018754  0.32272297    -0.03100
Br575      Br  0.12236146  0.81866044  0.23478217    -0.00200
Br576      Br  0.10874442  0.74161473  0.37532985    -0.04600
C577        C  0.38528896  0.68075913  0.28366541    -0.12000
C578        C  0.40126752  0.69247242  0.25852027     0.03500
C579        C  0.40219737  0.71812835  0.25760220    -0.12600
C580        C  0.38733619  0.73235112  0.28114378     0.18300
C581        C  0.37049838  0.72077474  0.30457726    -0.09600
C582        C  0.36951293  0.69531646  0.30556720    -0.02600
H583        H  0.41520127  0.72700994  0.23947681     0.04800
C584        C  0.39097322  0.75904149  0.28384833     0.20300
H585        H  0.35693416  0.68689046  0.32485789     0.10000
C586        C  0.37696889  0.77486838  0.26183534    -0.15900
C587        C  0.37757441  0.80022536  0.26778151     0.03000
C588        C  0.39265950  0.81001836  0.29593073    -0.11300
C589        C  0.40746231  0.79409717  0.31668366    -0.01300
C590        C  0.40649093  0.76882620  0.31117236    -0.06400
H591        H  0.36465059  0.76738360  0.24121626     0.06000
H592        H  0.41929982  0.80130112  0.33810862     0.09400
Br593      Br  0.34961550  0.73903445  0.33763512    -0.06100
Br594      Br  0.42335952  0.67487637  0.22654990    -0.03100
Br595      Br  0.35540971  0.82008804  0.23954987    -0.00200
Br596      Br  0.42522485  0.74811354  0.34338016    -0.04600
C597        C  0.32671786  0.59382516  0.36976418    -0.12000
C598        C  0.31300901  0.61129138  0.38999309     0.03500
C599        C  0.28757113  0.60902311  0.39258345    -0.12600
C600        C  0.27548937  0.58984770  0.37442318     0.18300
C601        C  0.28937100  0.57143449  0.35660533    -0.09600
C602        C  0.31485671  0.57328452  0.35504968    -0.02600
H603        H  0.27702887  0.62334397  0.40614994     0.04800
C604        C  0.24898853  0.59236201  0.36728335     0.20300
H605        H  0.32511479  0.55996875  0.33884558     0.10000
C606        C  0.24180734  0.60117034  0.33255892    -0.15900
C607        C  0.21722140  0.60522866  0.32419941     0.03000
C608        C  0.19893681  0.59986549  0.35087106    -0.11300
C609        C  0.20628328  0.59127639  0.38598045    -0.01300
C610        C  0.23111017  0.58775041  0.39440561    -0.06400
H611        H  0.25559969  0.60534643  0.31191154     0.06000
H612        H  0.19270761  0.58718533  0.40695007     0.09400
Br613      Br  0.27414665  0.54503886  0.33022842    -0.06100
Br614      Br  0.32798159  0.63944115  0.41214897    -0.03100
Br615      Br  0.21074086  0.61906055  0.27619077    -0.00200
Br616      Br  0.23983782  0.57646643  0.44293423    -0.04600
C617        C  0.00832000  0.58155453  0.41798141    -0.12000
C618        C  0.99126009  0.57843441  0.44694851     0.03500
C619        C  0.97421403  0.55949765  0.44519862    -0.12600
C620        C  0.97392293  0.54313969  0.41509032     0.18300
C621        C  0.99147053  0.54573946  0.38661701    -0.09600
C622        C  0.00856678  0.56478981  0.38832976    -0.02600
H623        H  0.96095857  0.55761159  0.46738548     0.04800
C624        C  0.95451123  0.52424723  0.41352426     0.20300
H625        H  0.02179571  0.56679023  0.36613783     0.10000
C626        C  0.93633377  0.52581376  0.38614363    -0.15900
C627        C  0.91672500  0.50940595  0.38535992     0.03000
C628        C  0.91478626  0.49114370  0.41285180    -0.11300
C629        C  0.93340937  0.48924689  0.43959956    -0.01300
C630        C  0.95304187  0.50557383  0.44020741    -0.06400
H631        H  0.93736171  0.53998945  0.36531138     0.06000
H632        H  0.93263129  0.47515266  0.46050477     0.09400
Br633      Br  0.99299258  0.52350037  0.34530098    -0.06100
Br634      Br  0.99106539  0.59883204  0.49036134    -0.03100
Br635      Br  0.89434633  0.51196608  0.34450063    -0.00200
Br636      Br  0.97764596  0.50131313  0.47763235    -0.04600
C637        C  0.99942365  0.89110890  0.44828737    -0.12000
C638        C  0.97926066  0.89145177  0.47288843     0.03500
C639        C  0.96158199  0.91006152  0.47037773    -0.12600
C640        C  0.96359447  0.92853912  0.44369200     0.18300
C641        C  0.98390720  0.92845654  0.41961142    -0.09600
C642        C  0.00162411  0.90989956  0.42210706    -0.02600
H643        H  0.94632121  0.91029251  0.48961059     0.04800
C644        C  0.94504591  0.94845918  0.44281762     0.20300
H645        H  0.01704028  0.90996582  0.40316512     0.10000
C646        C  0.94794640  0.96865175  0.46631297    -0.15900
C647        C  0.93054778  0.98756244  0.46751292     0.03000
C648        C  0.90950157  0.98664825  0.44444298    -0.11300
C649        C  0.90688443  0.96626722  0.42064636    -0.01300
C650        C  0.92431180  0.94731591  0.41983075    -0.06400
H651        H  0.96374764  0.96947646  0.48441745     0.06000
H652        H  0.89112463  0.96499340  0.40255900     0.09400
Br653      Br  0.98817578  0.95342542  0.38305790    -0.06100
Br654      Br  0.97580578  0.86801845  0.51201476    -0.03100
Br655      Br  0.93655132  0.01245358  0.50382104    -0.00200
Br656      Br  0.91891968  0.91994657  0.38746186    -0.04600
C657        C  0.02957209  0.67208821  0.42026500    -0.12000
C658        C  0.01750830  0.68277724  0.45147830     0.03500
C659        C  0.01493941  0.70830972  0.45440495    -0.12600
C660        C  0.02281611  0.72364229  0.42580594     0.18300
C661        C  0.03120029  0.71300843  0.39258318    -0.09600
C662        C  0.03436657  0.68765140  0.38986475    -0.02600
H663        H  0.00742137  0.71626999  0.47959392     0.04800
C664        C  0.02482924  0.75044559  0.43211588     0.20300
H665        H  0.04063848  0.68054793  0.36353578     0.10000
C666        C  0.04813084  0.76030974  0.43696547    -0.15900
C667        C  0.05157539  0.78546579  0.44140726     0.03000
C668        C  0.03126219  0.80189298  0.44168149    -0.11300
C669        C  0.00772734  0.79159137  0.43704763    -0.01300
C670        C  0.00450596  0.76627418  0.43210403    -0.06400
H671        H  0.06393148  0.74824778  0.43674260     0.06000
H672        H  0.99151771  0.80282914  0.43648506     0.09400
Br673      Br  0.03866526  0.73270569  0.35021607    -0.06100
Br674      Br  0.00418234  0.66394843  0.49141400    -0.03100
Br675      Br  0.08501950  0.79558899  0.44579634    -0.00200
Br676      Br  0.97215877  0.75416043  0.42347962    -0.04600
C677        C  0.07187905  0.60294841  0.49016049    -0.12000
C678        C  0.08967843  0.61518883  0.01154270     0.03500
C679        C  0.09897396  0.60433554  0.04373097    -0.12600
C680        C  0.09224198  0.58058420  0.05415250     0.18300
C681        C  0.07509712  0.56794603  0.03191831    -0.09600
C682        C  0.06483119  0.57931310  0.00080585    -0.02600
H683        H  0.11196518  0.61442738  0.06043378     0.04800
C684        C  0.10311393  0.56963388  0.08833227     0.20300
H685        H  0.05126491  0.56952724  0.48488655     0.10000
C686        C  0.08777078  0.55950193  0.11534310    -0.15900
C687        C  0.09720969  0.54775204  0.14674917     0.03000
C688        C  0.12271546  0.54864344  0.15446977    -0.11300
C689        C  0.13784792  0.56009594  0.12797665    -0.01300
C690        C  0.12854971  0.56928266  0.09465149    -0.06400
H691        H  0.06815822  0.55974232  0.11114867     0.06000
H692        H  0.15732654  0.56159583  0.13239893     0.09400
Br693      Br  0.06574635  0.53470744  0.04115987    -0.06100
Br694      Br  0.10405583  0.64559045  0.99675897    -0.03100
Br695      Br  0.07380910  0.52830659  0.17305411    -0.00200
Br696      Br  0.15186598  0.57905953  0.05766192    -0.04600
C697        C  0.10541662  0.48750481  0.23239018    -0.12000
C698        C  0.10403869  0.46890569  0.20516234     0.03500
C699        C  0.08473503  0.45232026  0.20590535    -0.12600
C700        C  0.06635196  0.45419812  0.23295360     0.18300
C701        C  0.06735060  0.47315553  0.25952287    -0.09600
C702        C  0.08680822  0.48968771  0.25903590    -0.02600
H703        H  0.08390175  0.43799895  0.18504007     0.04800
C704        C  0.04648551  0.43599563  0.23289199     0.20300
H705        H  0.08745223  0.50425220  0.27951809     0.10000
C706        C  0.04539519  0.41869196  0.26143000    -0.15900
C707        C  0.02792689  0.40010578  0.26070086     0.03000
C708        C  0.01166677  0.39824605  0.23049745    -0.11300
C709        C  0.01210231  0.41618671  0.20278915    -0.01300
C710        C  0.02929298  0.43501718  0.20385411    -0.06400
H711        H  0.05822800  0.41963560  0.28429640     0.06000
H712        H  0.99926360  0.41534200  0.17992433     0.09400
Br713      Br  0.04209820  0.47765126  0.29595467    -0.06100
Br714      Br  0.12689122  0.46637567  0.16468730    -0.03100
Br715      Br  0.02589956  0.37891957  0.30278372    -0.00200
Br716      Br  0.02831671  0.45933781  0.16565451    -0.04600
C717        C  0.50649983  0.39933881  0.22101399    -0.12000
C718        C  0.50782651  0.41836594  0.24762939     0.03500
C719        C  0.48964930  0.43659666  0.24887180    -0.12600
C720        C  0.46981276  0.43616565  0.22419557     0.18300
C721        C  0.46814227  0.41685714  0.19826241    -0.09600
C722        C  0.48634155  0.39872581  0.19684201    -0.02600
H723        H  0.49099149  0.45120514  0.26919461     0.04800
C724        C  0.45150923  0.45639092  0.22474020     0.20300
H725        H  0.48484276  0.38416159  0.17647376     0.10000
C726        C  0.45115242  0.47301283  0.19529505    -0.15900
C727        C  0.43323395  0.49135866  0.19309800     0.03000
C728        C  0.41509242  0.49354310  0.22100979    -0.11300
C729        C  0.41592693  0.47719653  0.25107567    -0.01300
C730        C  0.43393975  0.45884498  0.25317727    -0.06400
H731        H  0.46455791  0.47123012  0.17322938     0.06000
H732        H  0.40214576  0.47838336  0.27267259     0.09400
Br733      Br  0.44100268  0.41421163  0.16476419    -0.06100
Br734      Br  0.53300361  0.41959847  0.28459837    -0.03100
Br735      Br  0.43365722  0.51090603  0.14926001    -0.00200
Br736      Br  0.43304157  0.43671836  0.29426656    -0.04600
C737        C  0.32423863  0.51135872  0.21435795    -0.12000
C738        C  0.31338258  0.50420434  0.24844239     0.03500
C739        C  0.28804988  0.50009314  0.25045492    -0.12600
C740        C  0.27341503  0.50188608  0.21862468     0.18300
C741        C  0.28467689  0.50504012  0.18402103    -0.09600
C742        C  0.30977914  0.50926149  0.18195712    -0.02600
H743        H  0.27963841  0.49671266  0.27705891     0.04800
C744        C  0.24662396  0.50508531  0.22221603     0.20300
H745        H  0.31741206  0.51103957  0.15466082     0.10000
C746        C  0.23717085  0.52860211  0.21724368    -0.15900
C747        C  0.21206322  0.53309988  0.21778277     0.03000
C748        C  0.19533038  0.51380818  0.22457292    -0.11300
C749        C  0.20514208  0.49006792  0.22994559    -0.01300
C750        C  0.23048879  0.48564711  0.22839538    -0.06400
H751        H  0.24953724  0.54360580  0.21201921     0.06000
H752        H  0.19351295  0.47459904  0.23481540     0.09400
Br753      Br  0.26615718  0.50506891  0.13872864    -0.06100
Br754      Br  0.33181918  0.50009161  0.29340151    -0.03100
Br755      Br  0.20240951  0.56629657  0.20764257    -0.00200
Br756      Br  0.24224648  0.45270538  0.23285659    -0.04600
C757        C  0.11508677  0.93081289  0.17863349    -0.12000
C758        C  0.11605394  0.94114218  0.14277522     0.03500
C759        C  0.10577261  0.92870548  0.11259513    -0.12600
C760        C  0.09498726  0.90573683  0.11718387     0.18300
C761        C  0.09474514  0.89504555  0.15268457    -0.09600
C762        C  0.10436505  0.90778694  0.18316721    -0.02600
H763        H  0.10614153  0.93700538  0.08534486     0.04800
C764        C  0.08402213  0.89347862  0.08446346     0.20300
H765        H  0.10387039  0.89949969  0.21041507     0.10000
C766        C  0.09704340  0.87482275  0.06618648    -0.15900
C767        C  0.08788079  0.86404102  0.03369349     0.03000
C768        C  0.06520139  0.87186295  0.51901397    -0.11300
C769        C  0.05223697  0.89054392  0.03743270    -0.01300
C770        C  0.06141934  0.90129807  0.06990482    -0.06400
H771        H  0.11466773  0.86902111  0.07680497     0.06000
H772        H  0.03471853  0.89664644  0.52666551     0.09400
Br773      Br  0.08152673  0.86314679  0.16079923    -0.06100
Br774      Br  0.12994633  0.97267959  0.13348698    -0.03100
Br775      Br  0.10805568  0.84028579  0.50905525    -0.00200
Br776      Br  0.04240233  0.92643392  0.09379001    -0.04600
C777        C  0.00519544  0.09113182  0.26338113    -0.12000
C778        C  0.00319960  0.07170880  0.28880518     0.03500
C779        C  0.02132308  0.05346372  0.28985468    -0.12600
C780        C  0.04131455  0.05402946  0.26541608     0.18300
C781        C  0.04336204  0.07345416  0.24016952    -0.09600
C782        C  0.02564535  0.09193857  0.23975480    -0.02600
H783        H  0.01957766  0.03851485  0.30927642     0.04800
C784        C  0.05900104  0.03346294  0.26453994     0.20300
H785        H  0.02746715  0.10665322  0.21994829     0.10000
C786        C  0.05782582  0.01672371  0.23508857    -0.15900
C787        C  0.07525973  0.99809477  0.23114085     0.03000
C788        C  0.09451205  0.99591726  0.25709733    -0.11300
C789        C  0.09523839  0.01241138  0.28725003    -0.01300
C790        C  0.07761674  0.03098715  0.29120944    -0.06400
H791        H  0.04354867  0.01859849  0.21442548     0.06000
H792        H  0.10970983  0.01096818  0.30765959     0.09400
Br793      Br  0.06967944  0.07514931  0.20494888    -0.06100
Br794      Br  0.97669366  0.06950675  0.32341766    -0.03100
Br795      Br  0.07241512  0.97783338  0.18791895    -0.00200
Br796      Br  0.08013959  0.05309890  0.33253310    -0.04600
C797        C  0.40239159  0.99995848  0.23680720    -0.12000
C798        C  0.40504974  0.01652056  0.20724723     0.03500
C799        C  0.42314572  0.03448233  0.20865456    -0.12600
C800        C  0.43912151  0.03629162  0.23903420     0.18300
C801        C  0.43612982  0.02003283  0.26907264    -0.09600
C802        C  0.41800037  0.00191839  0.26758344    -0.02600
H803        H  0.42503838  0.04692773  0.18553146     0.04800
C804        C  0.45895440  0.05490127  0.23793180     0.20300
H805        H  0.41601959  0.98937227  0.29056137     0.10000
C806        C  0.45937866  0.07399759  0.26417896    -0.15900
C807        C  0.47717657  0.09238411  0.26249930     0.03000
C808        C  0.49463975  0.09228664  0.23349395    -0.11300
C809        C  0.49444557  0.07295377  0.20771577    -0.01300
C810        C  0.47694355  0.05439708  0.20975863    -0.06400
H811        H  0.44583438  0.07457323  0.28615558     0.06000
H812        H  0.50801564  0.07227424  0.18576471     0.09400
Br813      Br  0.45674212  0.02124627  0.31212398    -0.06100
Br814      Br  0.38529220  0.01457845  0.16331485    -0.03100
Br815      Br  0.47788454  0.11594606  0.30218674    -0.00200
Br816      Br  0.47899465  0.02825238  0.17408006    -0.04600
C817        C  0.31468824  0.97083042  0.23040938    -0.12000
C818        C  0.30325997  0.97898501  0.26377949     0.03500
C819        C  0.27776883  0.98136176  0.26577155    -0.12600
C820        C  0.26292587  0.97612975  0.23509713     0.18300
C821        C  0.27414941  0.97066639  0.20085918    -0.09600
C822        C  0.29964270  0.96833588  0.19865693    -0.02600
H823        H  0.26933423  0.98632870  0.29202241     0.04800
C824        C  0.23605731  0.97399718  0.24055894     0.20300
H825        H  0.30712650  0.96430548  0.17167084     0.10000
C826        C  0.21971960  0.98956871  0.22206206    -0.15900
C827        C  0.19425816  0.98675093  0.22557766     0.03000
C828        C  0.18442203  0.96850771  0.24932732    -0.11300
C829        C  0.20135639  0.95307206  0.26764016    -0.01300
C830        C  0.22657818  0.95565967  0.26349229    -0.06400
H831        H  0.22682900  0.00358654  0.20393451     0.06000
H832        H  0.19562227  0.93762531  0.28360417     0.09400
Br833      Br  0.25553556  0.96459425  0.15659071    -0.06100
Br834      Br  0.32092190  0.98634619  0.30858100    -0.03100
Br835      Br  0.17450358  0.00751221  0.19476762    -0.00200
Br836      Br  0.24726231  0.93199646  0.28752521    -0.04600
C837        C  0.44100639  0.60157987  0.47334592    -0.12000
C838        C  0.44606567  0.57709010  0.48374629     0.03500
C839        C  0.43389755  0.56702042  0.01421437    -0.12600
C840        C  0.41650964  0.58053629  0.03437386     0.18300
C841        C  0.40987233  0.60395665  0.02213930    -0.09600
C842        C  0.42186460  0.61417132  0.99179759    -0.02600
H843        H  0.43877950  0.54876712  0.02324257     0.04800
C844        C  0.40711234  0.57081734  0.06979484     0.20300
H845        H  0.41656933  0.63240006  0.98325921     0.10000
C846        C  0.41385499  0.58233059  0.10314405    -0.15900
C847        C  0.40565199  0.57369581  0.13748002     0.03000
C848        C  0.39071599  0.55274053  0.13881212    -0.11300
C849        C  0.38423426  0.54118966  0.10511918    -0.01300
C850        C  0.39209031  0.55012499  0.07093323    -0.06400
H851        H  0.42540983  0.59835586  0.10236554     0.06000
H852        H  0.37302889  0.52493610  0.10528209     0.09400
Br853      Br  0.38483615  0.62290044  0.04642911    -0.06100
Br854      Br  0.46991731  0.55644110  0.46020844    -0.03100
Br855      Br  0.41420730  0.59255022  0.18053920    -0.00200
Br856      Br  0.38105970  0.53396936  0.02662292    -0.04600
C857        C  0.60642033  0.50419211  0.40445313    -0.12000
C858        C  0.60834594  0.52630655  0.42487346     0.03500
C859        C  0.59020404  0.54431122  0.42171323    -0.12600
C860        C  0.56906253  0.54040311  0.40048767     0.18300
C861        C  0.56693521  0.51828302  0.38040971    -0.09600
C862        C  0.58562344  0.50062392  0.38217542    -0.02600
H863        H  0.59206337  0.56113023  0.43746278     0.04800
C864        C  0.54908185  0.55909179  0.40151594     0.20300
H865        H  0.58363030  0.48378612  0.36653749     0.10000
C866        C  0.54064108  0.56979076  0.36839602    -0.15900
C867        C  0.52163696  0.58718065  0.36888601     0.03000
C868        C  0.51149980  0.59488018  0.40292859    -0.11300
C869        C  0.52049920  0.58497349  0.43598945    -0.01300
C870        C  0.53854047  0.56674565  0.43554356    -0.06400
H871        H  0.54868340  0.56442484  0.34205952     0.06000
H872        H  0.51283159  0.59090844  0.46232580     0.09400
Br873      Br  0.53817686  0.51041626  0.35235582    -0.06100
Br874      Br  0.63308050  0.53201704  0.46179724    -0.03100
Br875      Br  0.50984866  0.59982620  0.32266087    -0.00200
Br876      Br  0.54662893  0.55173372  0.48209599    -0.04600
C877        C  0.38917373  0.93672793  0.15976870    -0.12000
C878        C  0.40724398  0.91804256  0.15989485     0.03500
C879        C  0.41655269  0.90885720  0.12628188    -0.12600
C880        C  0.40837972  0.91786041  0.09215031     0.18300
C881        C  0.39100897  0.93681848  0.09167650    -0.09600
C882        C  0.38174800  0.94617153  0.12511415    -0.02600
H883        H  0.43008838  0.89430671  0.12671041     0.04800
C884        C  0.41838533  0.90727806  0.05740177     0.20300
H885        H  0.36848009  0.96091924  0.12387905     0.10000
C886        C  0.40509167  0.88937077  0.03817654    -0.15900
C887        C  0.41465988  0.87841957  0.50582378     0.03000
C888        C  0.43812213  0.88492049  0.49310154    -0.11300
C889        C  0.45096076  0.90339923  0.01179709    -0.01300
C890        C  0.44124362  0.91463101  0.04357932    -0.06400
H891        H  0.38720127  0.88404451  0.04815289     0.06000
H892        H  0.46879024  0.90892297  0.00180177     0.09400
Br893      Br  0.37951973  0.95050049  0.04593385    -0.06100
Br894      Br  0.41946876  0.90282607  0.20377123    -0.03100
Br895      Br  0.39438301  0.85603826  0.47890346    -0.00200
Br896      Br  0.45949102  0.94029286  0.06689407    -0.04600
C897        C  0.59969885  0.99228303  0.42019738    -0.12000
C898        C  0.59824031  0.97292588  0.39414566     0.03500
C899        C  0.57882311  0.95629342  0.39585390    -0.12600
C900        C  0.56047748  0.95862308  0.42294472     0.18300
C901        C  0.56156009  0.97819520  0.44840852    -0.09600
C902        C  0.58098739  0.99482335  0.44684860    -0.02600
H903        H  0.57800401  0.94143749  0.37588278     0.04800
C904        C  0.54104137  0.93979938  0.42509810     0.20300
H905        H  0.58162755  0.00965532  0.46688586     0.10000
C906        C  0.54482536  0.91920573  0.44739217    -0.15900
C907        C  0.52738937  0.90053496  0.44927235     0.03000
C908        C  0.50590536  0.90181633  0.42740599    -0.11300
C909        C  0.50190509  0.92289337  0.40591882    -0.01300
C910        C  0.51908672  0.94185088  0.40495285    -0.06400
H911        H  0.56135350  0.91781222  0.46383352     0.06000
H912        H  0.48544629  0.92457935  0.38941190     0.09400
Br913      Br  0.53690193  0.98275115  0.48578476    -0.06100
Br914      Br  0.62122608  0.96911723  0.35416335    -0.03100
Br915      Br  0.53320082  0.87510153  0.48477809    -0.00200
Br916      Br  0.51169448  0.97037349  0.37624292    -0.04600
C917        C  0.47352171  0.81241497  0.42373598    -0.12000
C918        C  0.45287068  0.79665589  0.42196599     0.03500
C919        C  0.45584207  0.77125808  0.42275024    -0.12600
C920        C  0.47896995  0.76037521  0.42506079     0.18300
C921        C  0.49962655  0.77558508  0.42681001    -0.09600
C922        C  0.49686025  0.80120775  0.42619205    -0.02600
H923        H  0.43978198  0.75976395  0.42184048     0.04800
C924        C  0.48061963  0.73313015  0.42574111     0.20300
H925        H  0.51321669  0.81200115  0.42845975     0.10000
C926        C  0.48950560  0.72028678  0.39468563    -0.15900
C927        C  0.48790649  0.69464544  0.39229206     0.03000
C928        C  0.47736171  0.68090639  0.42167717    -0.11300
C929        C  0.46952417  0.69422344  0.45345169    -0.01300
C930        C  0.47081043  0.71975675  0.45539220    -0.06400
H931        H  0.49681890  0.73037373  0.37140502     0.06000
H932        H  0.46147419  0.68552444  0.47711538     0.09400
Br933      Br  0.53188495  0.76214910  0.43217837    -0.06100
Br934      Br  0.41954194  0.80793463  0.41905286    -0.03100
Br935      Br  0.49924962  0.67993459  0.34678946    -0.00200
Br936      Br  0.45812500  0.73564650  0.49913339    -0.04600
C937        C  0.46999937  0.84054494  0.92472084     0.86400
C938        C  0.45542741  0.84993197  0.89127612    -0.53800
C939        C  0.44908485  0.87403984  0.89308929     0.09400
C940        C  0.45929356  0.88733809  0.92737947     0.20300
C941        C  0.49266280  0.85745540  0.92514940    -0.54500
C942        C  0.48709604  0.88201061  0.92701684     0.09500
C943        C  0.45526365  0.84861539  0.95931035    -0.54100
C944        C  0.44968844  0.87294307  0.96061880     0.10000
H945        H  0.44867664  0.83789574  0.86951690     0.14600
H946        H  0.45438667  0.90705757  0.92859832     0.00300
H947        H  0.51136498  0.85110706  0.92276232     0.14900
H948        H  0.45033644  0.83618069  0.98148713     0.14600
C949        C  0.47285879  0.65304648  0.91763466     0.86400
C950        C  0.46066000  0.64001106  0.95097265    -0.53800
C951        C  0.45566791  0.61572110  0.94559294     0.09400
C952        C  0.46412278  0.60625942  0.90742454     0.20300
C953        C  0.49594505  0.63753338  0.91053239    -0.54500
C954        C  0.49146805  0.61319413  0.90504843     0.09500
C955        C  0.45572977  0.64725242  0.88489907    -0.54100
C956        C  0.45106484  0.62298510  0.87971977     0.10000
H957        H  0.45598205  0.64859326  0.97709001     0.14600
H958        H  0.46026955  0.58672242  0.90200647     0.00300
H959        H  0.51431316  0.64497997  0.91116592     0.14900
H960        H  0.44669512  0.66138760  0.86874807     0.14600
C961        C  0.34213894  0.96413986  0.72931142     0.86400
C962        C  0.34931708  0.94612869  0.75993194    -0.53800
C963        C  0.37357845  0.94039129  0.76133912     0.09400
C964        C  0.38897243  0.95310505  0.73104508     0.20300
C965        C  0.35889940  0.98626414  0.73488973    -0.54500
C966        C  0.38329696  0.98066380  0.73566558     0.09500
C967        C  0.35203024  0.95161578  0.69364212    -0.54100
C968        C  0.37651827  0.94612347  0.69397833     0.10000
H969        H  0.33598919  0.93772659  0.77822588     0.14600
H970        H  0.40883360  0.94901902  0.73216461     0.00300
H971        H  0.35207019  0.00490755  0.73699579     0.14900
H972        H  0.34103852  0.94687279  0.66980909     0.14600
C973        C  0.15682659  0.96241951  0.75002385     0.86400
C974        C  0.14935378  0.94995011  0.71351653    -0.53800
C975        C  0.12538419  0.94348263  0.71153831     0.09400
C976        C  0.11057555  0.94979773  0.74678450     0.20300
C977        C  0.13881837  0.98397789  0.75488199    -0.54500
C978        C  0.11457494  0.97758067  0.75265465     0.09500
C979        C  0.14850932  0.94471246  0.78084811    -0.54100
C980        C  0.12465129  0.93775991  0.77885456     0.10000
H981        H  0.16219552  0.94622783  0.69109931     0.14600
H982        H  0.09108921  0.94425103  0.74550912     0.00300
H983        H  0.14463973  0.00261692  0.76008559     0.14900
H984        H  0.15997634  0.93806018  0.80310526     0.14600
C985        C  0.35044480  0.52158558  0.71259388     0.86400
C986        C  0.35762045  0.53370936  0.67563600    -0.53800
C987        C  0.38098616  0.54227748  0.67410530     0.09400
C988        C  0.39532217  0.53845099  0.71065007     0.20300
C989        C  0.37024618  0.50213262  0.71918346    -0.54500
C990        C  0.39371860  0.51060245  0.71788529     0.09500
C991        C  0.35552290  0.54194974  0.74101683    -0.54100
C992        C  0.37884649  0.55086666  0.74038606     0.10000
H993        H  0.34532886  0.53672799  0.65268596     0.14600
H994        H  0.41439479  0.54520407  0.71017125     0.00300
H995        H  0.36600329  0.48297031  0.72339475     0.14900
H996        H  0.34149691  0.54934123  0.75938138     0.14600
C997        C  0.16768989  0.51918580  0.72570837     0.86400
C998        C  0.16113733  0.53811624  0.75573524    -0.53800
C999        C  0.13734437  0.54543703  0.75561119     0.09400
C1000       C  0.12171546  0.53287087  0.72599862     0.20300
C1001       C  0.14970552  0.49813588  0.73283399    -0.54500
C1002       C  0.12564958  0.50526302  0.73235718     0.09500
C1003       C  0.15854663  0.52995450  0.68876952    -0.54100
C1004       C  0.13453068  0.53754317  0.68844558     0.10000
H1005       H  0.17448977  0.54573989  0.77484332     0.14600
H1006       H  0.10257577  0.53915964  0.72811418     0.00300
H1007       H  0.15476364  0.47913690  0.73630269     0.14900
H1008       H  0.17037067  0.53053728  0.66459600     0.14600
C1009       C  0.03524032  0.82975888  0.94570120     0.86400
C1010       C  0.04880505  0.83671127  0.98177938    -0.53800
C1011       C  0.05450997  0.86094087  0.98486154     0.09400
C1012       C  0.04596677  0.87636521  0.95162450     0.20300
C1013       C  0.01265823  0.84702483  0.94577482    -0.54500
C1014       C  0.01827779  0.87134577  0.94899553     0.09500
C1015       C  0.05108538  0.83970114  0.91399242    -0.54100
C1016       C  0.05708837  0.86377249  0.91719025     0.10000
H1017       H  0.05280984  0.82365319  0.00359292     0.14600
H1018       H  0.05063614  0.89604526  0.95410350     0.00300
H1019       H  0.99387079  0.84125270  0.94294696     0.14900
H1020       H  0.05798964  0.82822340  0.89152707     0.14600
C1021       C  0.03831698  0.64509101  0.92007339     0.86400
C1022       C  0.05649432  0.63790486  0.88886951    -0.53800
C1023       C  0.06448442  0.61427968  0.88980288     0.09400
C1024       C  0.05352087  0.59945243  0.92176214     0.20300
C1025       C  0.01769875  0.62624585  0.91692375    -0.54500
C1026       C  0.02552891  0.60241935  0.91803022     0.09500
C1027       C  0.05213263  0.63795385  0.95580870    -0.54100
C1028       C  0.05999069  0.61414642  0.95698941     0.10000
H1029       H  0.06462102  0.65060763  0.86954824     0.14600
H1030       H  0.05990404  0.58014609  0.92214828     0.00300
H1031       H  0.99851462  0.63129316  0.91473451     0.14900
H1032       H  0.05459972  0.65054521  0.97882463     0.14600
In1033     In  0.39088591  0.60814639  0.81457566     1.36900
C1034       C  0.38525296  0.57239153  0.76364773     0.77500
O1035       O  0.42863237  0.62327501  0.82278005    -0.60900
O1036       O  0.41432513  0.60089790  0.86530980    -0.51800
C1037       C  0.38634772  0.65420419  0.79180773     0.70200
O1038       O  0.39688620  0.63809264  0.77192054    -0.46700
C1039       C  0.35113442  0.59964842  0.85504277     0.74900
O1040       O  0.37022027  0.58953938  0.76892028    -0.58500
O1041       O  0.36846965  0.58431941  0.85292487    -0.48600
O1042       O  0.40486292  0.57462282  0.78173161    -0.55000
C1043       C  0.43124032  0.61488887  0.85493927     0.85100
O1044       O  0.37732725  0.64607193  0.82146107    -0.56900
O1045       O  0.35516242  0.61964557  0.83919794    -0.60200
In1046     In  0.12543211  0.60441697  0.82383419     1.36900
C1047       C  0.08515655  0.60660897  0.86588265     0.77500
O1048       O  0.13491434  0.64337856  0.83428805    -0.60900
O1049       O  0.11650668  0.63488525  0.78389376    -0.51800
C1050       C  0.17242062  0.60228891  0.84231490     0.70200
O1051       O  0.15559789  0.59891803  0.86600794    -0.46700
C1052       C  0.12883780  0.56528290  0.78022047     0.74900
O1053       O  0.10516877  0.59851315  0.87838102    -0.58500
O1054       O  0.12173313  0.58569460  0.76809004    -0.48600
O1055       O  0.08524479  0.61085552  0.83158866    -0.55000
C1056       C  0.12587697  0.65116459  0.80437731     0.85100
O1057       O  0.16476653  0.60729671  0.81024888    -0.56900
O1058       O  0.13094891  0.56416464  0.81498373    -0.60200
In1059     In  0.11291926  0.87800762  0.84485912     1.36900
C1060       C  0.11559936  0.91838882  0.80385454     0.77500
O1061       O  0.07303851  0.87264529  0.85688341    -0.60900
O1062       O  0.09602130  0.88161815  0.90233823    -0.51800
C1063       C  0.11183208  0.83170752  0.82265002     0.70200
O1064       O  0.10707446  0.84908592  0.80067414    -0.46700
C1065       C  0.16065436  0.87572133  0.85845744     0.74900
O1066       O  0.10419771  0.89977583  0.79257990    -0.58500
O1067       O  0.14552783  0.88269911  0.88307859    -0.48600
O1068       O  0.12205971  0.91748020  0.83738783    -0.55000
C1069       C  0.07534208  0.87427242  0.89162473     0.85100
O1070       O  0.11672426  0.83834508  0.85538903    -0.56900
O1071       O  0.15102478  0.86951241  0.82813552    -0.60200
In1072     In  0.38745075  0.88209518  0.83076365     1.36900
C1073       C  0.38198401  0.92123468  0.78720613     0.77500
O1074       O  0.34929417  0.86777713  0.82741074    -0.60900
O1075       O  0.35837167  0.88942428  0.87440281    -0.51800
C1076       C  0.39140455  0.83602087  0.80733669     0.70200
O1077       O  0.39333497  0.84230325  0.84096232    -0.46700
C1078       C  0.42828213  0.88247260  0.87060256     0.74900
O1079       O  0.39341418  0.90236359  0.77692082    -0.58500
O1080       O  0.40773612  0.88745950  0.88478451    -0.48600
O1081       O  0.37540152  0.92094635  0.82068114    -0.55000
C1082       C  0.34211840  0.87753108  0.85726792     0.85100
O1083       O  0.38774001  0.85354474  0.78519387    -0.56900
O1084       O  0.42833475  0.88077154  0.83571927    -0.60200
C1085       C  0.85165407  0.45890200  0.91418427     0.86400
C1086       C  0.85780720  0.44722237  0.95202263    -0.53800
C1087       C  0.88187423  0.44099100  0.95624997     0.09400
C1088       C  0.89778222  0.44608917  0.92198603     0.20300
C1089       C  0.86983617  0.48020467  0.91049200    -0.54500
C1090       C  0.89400306  0.47356785  0.91420798     0.09500
C1091       C  0.86099002  0.43976323  0.88584584    -0.54100
C1092       C  0.88481377  0.43312278  0.88980013     0.10000
H1093       H  0.84437821  0.44447544  0.97384116     0.14600
H1094       H  0.91719185  0.44039694  0.92525685     0.00300
H1095       H  0.86393853  0.49895753  0.90628962     0.14900
H1096       H  0.84988582  0.43039266  0.86541923     0.14600
C1097       C  0.66556934  0.46522238  0.91222487     0.86400
C1098       C  0.65746084  0.44869474  0.88009654    -0.53800
C1099       C  0.63298547  0.44386973  0.87919415     0.09400
C1100       C  0.61831738  0.45668894  0.91031062     0.20300
C1101       C  0.64970579  0.48834127  0.90825928    -0.54500
C1102       C  0.62498388  0.48415092  0.90723896     0.09500
C1103       C  0.65506684  0.45303240  0.94754007    -0.54100
C1104       C  0.63064343  0.44842110  0.94647077     0.10000
H1105       H  0.67034297  0.44027089  0.86085134     0.14600
H1106       H  0.59841972  0.45275536  0.90955547     0.00300
H1107       H  0.65744351  0.50646686  0.90616335     0.14900
H1108       H  0.66524834  0.44934059  0.97265905     0.14600
C1109       C  0.97985820  0.33591091  0.71860402     0.86400
C1110       C  0.96800195  0.34550203  0.68230447    -0.53800
C1111       C  0.96125154  0.36955518  0.68360997     0.09400
C1112       C  0.96659182  0.38213224  0.72089518     0.20300
C1113       C  0.00112410  0.35368839  0.72577801    -0.54500
C1114       C  0.99414588  0.37784742  0.72697479     0.09500
C1115       C  0.96082697  0.34219841  0.74841871    -0.54100
C1116       C  0.95429069  0.36612615  0.75019903     0.10000
H1117       H  0.96445597  0.33481775  0.65758720     0.14600
H1118       H  0.96087760  0.40164829  0.72204306     0.00300
H1119       H  0.02001106  0.34776318  0.72869305     0.14900
H1120       H  0.95281932  0.32861884  0.76665813     0.14600
C1121       C  0.97035760  0.15128226  0.74458599     0.86400
C1122       C  0.94974214  0.14552824  0.77214654    -0.53800
C1123       C  0.94359885  0.12141919  0.77410187     0.09400
C1124       C  0.95924254  0.10472675  0.74903024     0.20300
C1125       C  0.99172997  0.13461567  0.75726283    -0.54500
C1126       C  0.98598325  0.11032085  0.75936522     0.09500
C1127       C  0.96223879  0.13972432  0.70763488    -0.54100
C1128       C  0.95632815  0.11559730  0.71002692     0.10000
H1129       H  0.94053013  0.15953809  0.78859619     0.14600
H1130       H  0.95432534  0.08508029  0.75035534     0.00300
H1131       H  0.01019974  0.14058081  0.76266668     0.14900
H1132       H  0.96068457  0.14990746  0.68191402     0.14600
C1133       C  0.54187827  0.33795158  0.71321062     0.86400
C1134       C  0.55963392  0.34575745  0.74391020    -0.53800
C1135       C  0.56578290  0.36987183  0.74364335     0.09400
C1136       C  0.55307175  0.38463895  0.71290586     0.20300
C1137       C  0.51966519  0.35529074  0.71739530    -0.54500
C1138       C  0.52544483  0.37967854  0.71824411     0.09500
C1139       C  0.55388053  0.34691117  0.67680022    -0.54100
C1140       C  0.55949231  0.37120513  0.67648808     0.10000
H1141       H  0.56749154  0.33290198  0.76355237     0.14600
H1142       H  0.55789816  0.40433125  0.71264242     0.00300
H1143       H  0.50093789  0.34890560  0.71907642     0.14900
H1144       H  0.55661240  0.33578999  0.65217391     0.14600
C1145       C  0.53296541  0.15137071  0.73041257     0.86400
C1146       C  0.54695430  0.14275989  0.69548321    -0.53800
C1147       C  0.55112922  0.11791046  0.69231927     0.09400
C1148       C  0.54144868  0.10424767  0.72698233     0.20300
C1149       C  0.50975404  0.13572601  0.73159267    -0.54500
C1150       C  0.51413456  0.11108735  0.73047641     0.09500
C1151       C  0.54903297  0.14141207  0.76202444    -0.54100
C1152       C  0.55371719  0.11698195  0.76017095     0.10000
H1153       H  0.55362144  0.15609775  0.67591918     0.14600
H1154       H  0.54356148  0.08436004  0.72763773     0.00300
H1155       H  0.49147935  0.14349890  0.73359473     0.14900
H1156       H  0.55893814  0.15271059  0.78160394     0.14600
C1157       C  0.84736491  0.02169206  0.94606351     0.86400
C1158       C  0.85545940  0.03800550  0.91396696    -0.53800
C1159       C  0.87940311  0.04476475  0.91477551     0.09400
C1160       C  0.89386347  0.03370519  0.94740172     0.20300
C1161       C  0.86514256  0.99963790  0.94478971    -0.54500
C1162       C  0.88959830  0.00570783  0.94520020     0.09500
C1163       C  0.85555072  0.03546448  0.98149940    -0.54100
C1164       C  0.87965790  0.04145204  0.98240497     0.10000
H1165       H  0.84268533  0.04510303  0.89354908     0.14600
H1166       H  0.91336259  0.03918326  0.94742255     0.00300
H1167       H  0.85893589  0.98083287  0.94475195     0.14900
H1168       H  0.84421642  0.03876235  0.00565058     0.14600
C1169       C  0.66160936  0.02666792  0.91900721     0.86400
C1170       C  0.65384780  0.04173208  0.95341247    -0.53800
C1171       C  0.62937020  0.04740488  0.95573421     0.09400
C1172       C  0.61497755  0.03826439  0.92154543     0.20300
C1173       C  0.64426721  0.00454054  0.91846941    -0.54500
C1174       C  0.61989344  0.01054014  0.91962636     0.09500
C1175       C  0.65268044  0.04245885  0.88629925    -0.54100
C1176       C  0.62856016  0.04876135  0.88781732     0.10000
H1177       H  0.66699953  0.04717844  0.97438135     0.14600
H1178       H  0.59517704  0.04224692  0.92167520     0.00300
H1179       H  0.65078527  0.98576387  0.91786862     0.14900
H1180       H  0.66415717  0.04994673  0.86474983     0.14600
In1181     In  0.62260231  0.38319975  0.81500542     1.36900
C1182       C  0.62398020  0.42401485  0.85503680     0.77500
O1183       O  0.66060089  0.37861218  0.83490224    -0.60900
O1184       O  0.65574640  0.38660149  0.77763194    -0.51800
C1185       C  0.62331777  0.33673385  0.83462036     0.70200
O1186       O  0.61512882  0.35315721  0.85636457    -0.46700
C1187       C  0.58463502  0.37904625  0.76938408     0.74900
O1188       O  0.61490583  0.40459288  0.86777609    -0.58500
O1189       O  0.60466103  0.38802331  0.75863562    -0.48600
O1190       O  0.62864344  0.42345804  0.82075445    -0.55000
C1191       C  0.67059197  0.38261885  0.80400088     0.85100
O1192       O  0.63040886  0.34429679  0.80342077    -0.56900
O1193       O  0.58322099  0.37537006  0.80381903    -0.60200
In1194     In  0.61603682  0.10653340  0.81904029     1.36900
C1195       C  0.61942220  0.06801120  0.86294364     0.77500
O1196       O  0.57564289  0.11114026  0.81641130    -0.60900
O1197       O  0.59402323  0.09990984  0.76692093    -0.51800
C1198       C  0.61573325  0.15432721  0.83241177     0.70200
O1199       O  0.61292643  0.13878276  0.85800313    -0.46700
C1200       C  0.66277504  0.10743855  0.80008418     0.74900
O1201       O  0.61224512  0.08858693  0.87477262    -0.58500
O1202       O  0.64673408  0.09922490  0.77797802    -0.48600
O1203       O  0.62204204  0.06654884  0.82821827    -0.55000
C1204       C  0.57445799  0.10753617  0.78185888     0.85100
O1205       O  0.61826680  0.14516765  0.80035117    -0.56900
O1206       O  0.65475431  0.11442149  0.83120243    -0.60200
In1207     In  0.88935298  0.10547340  0.84978603     1.36900
C1208       C  0.88759232  0.06494396  0.89066793     0.77500
O1209       O  0.84957998  0.11012892  0.85969851    -0.60900
O1210       O  0.86055650  0.09995972  0.80516307    -0.51800
C1211       C  0.89654127  0.14792612  0.88398536     0.70200
O1212       O  0.91280123  0.13139038  0.88342365    -0.46700
C1213       C  0.92316694  0.11344951  0.79789309     0.74900
O1214       O  0.89656473  0.08454794  0.90317177    -0.58500
O1215       O  0.90473522  0.12687908  0.80291211    -0.48600
O1216       O  0.88263302  0.06534431  0.85653107    -0.55000
C1217       C  0.84304762  0.10448401  0.82725701     0.85100
O1218       O  0.87620434  0.14146358  0.87100297    -0.56900
O1219       O  0.92320031  0.09404518  0.81672072    -0.60200
In1220     In  0.89933240  0.37304611  0.82524725     1.36900
C1221       C  0.89467756  0.41333787  0.86622327     0.77500
O1222       O  0.93909849  0.37056526  0.81168084    -0.60900
O1223       O  0.91463209  0.37999365  0.76820013    -0.51800
C1224       C  0.90506951  0.32716315  0.84838245     0.70200
O1225       O  0.90746729  0.34533256  0.86990067    -0.46700
C1226       C  0.85265453  0.36885359  0.80641066     0.74900
O1227       O  0.90580787  0.39484812  0.87853493    -0.58500
O1228       O  0.86857998  0.37681201  0.78421316    -0.48600
O1229       O  0.88914574  0.41208399  0.83242466    -0.55000
C1230       C  0.93595679  0.37386692  0.77742530     0.85100
O1231       O  0.89986660  0.33280120  0.81536768    -0.56900
O1232       O  0.86081415  0.36270352  0.83773645    -0.60200
C1233       C  0.90761938  0.30121089  0.85996516    -0.12000
C1234       C  0.90946144  0.29375725  0.89749434     0.03500
C1235       C  0.90977779  0.26876621  0.90616868    -0.12600
C1236       C  0.90893017  0.25092488  0.87811853     0.18300
C1237       C  0.90793186  0.25828666  0.84076112    -0.09600
C1238       C  0.90723844  0.28311484  0.83204945    -0.02600
H1239       H  0.91060027  0.26319575  0.93496943     0.04800
C1240       C  0.90776496  0.22472058  0.88797347     0.20300
H1241       H  0.90608319  0.28822701  0.80307900     0.10000
C1242       C  0.88561875  0.21515908  0.90093722    -0.15900
C1243       C  0.88238340  0.18987766  0.90397127     0.03000
C1244       C  0.90148821  0.17374079  0.89362163    -0.11300
C1245       C  0.92441115  0.18348597  0.88426771    -0.01300
C1246       C  0.92763358  0.20879160  0.88138960    -0.06400
H1247       H  0.87040891  0.22734151  0.90695881     0.06000
H1248       H  0.93933015  0.17142428  0.87629982     0.09400
Br1249     Br  0.90651967  0.23513948  0.80052065    -0.06100
Br1250     Br  0.91129383  0.31631705  0.93841144    -0.03100
Br1251     Br  0.85130286  0.17836079  0.92135358    -0.00200
Br1252     Br  0.95894794  0.22082596  0.86606054    -0.04600
C1253       C  0.81692859  0.10353426  0.81659211    -0.12000
C1254       C  0.79867302  0.09793227  0.84303683     0.03500
C1255       C  0.77404443  0.09915531  0.83317577    -0.12600
C1256       C  0.76696223  0.10548444  0.79717638     0.18300
C1257       C  0.78495957  0.11053046  0.77039065    -0.09600
C1258       C  0.80980975  0.10936588  0.78013029    -0.02600
H1259       H  0.76021498  0.09522867  0.85386303     0.04800
C1260       C  0.74052265  0.10752521  0.78945282     0.20300
H1261       H  0.82352754  0.11375326  0.75951358     0.10000
C1262       C  0.72817428  0.12871720  0.80108848    -0.15900
C1263       C  0.70265081  0.12950051  0.80216728     0.03000
C1264       C  0.68906061  0.10878983  0.79145918    -0.11300
C1265       C  0.70136555  0.08816690  0.77730458    -0.01300
C1266       C  0.72701005  0.08737148  0.77650237    -0.06400
H1267       H  0.73846100  0.14428807  0.81109081     0.06000
H1268       H  0.69112228  0.07210916  0.76920278     0.09400
Br1269     Br  0.77622399  0.11991230  0.72091543    -0.06100
Br1270     Br  0.80583564  0.08749436  0.89277970    -0.03100
Br1271     Br  0.68723440  0.15913611  0.81941923    -0.00200
Br1272     Br  0.74292571  0.05785683  0.76032898    -0.04600
C1273       C  0.69749956  0.38200454  0.79946607    -0.12000
C1274       C  0.71331448  0.38635865  0.82985879     0.03500
C1275       C  0.73852304  0.38363682  0.82540488    -0.12600
C1276       C  0.74860655  0.37666657  0.79119886     0.18300
C1277       C  0.73307415  0.37268570  0.76064798    -0.09600
C1278       C  0.70770709  0.37559810  0.76485083    -0.02600
H1279       H  0.75042311  0.38680087  0.84898197     0.04800
C1280       C  0.77531590  0.37265019  0.78926529     0.20300
H1281       H  0.69589542  0.37196254  0.74135398     0.10000
C1282       C  0.78541528  0.35307343  0.80913723    -0.15900
C1283       C  0.81071057  0.35069754  0.81336563     0.03000
C1284       C  0.82637116  0.36817559  0.79747110    -0.11300
C1285       C  0.81631742  0.38694845  0.77572872    -0.01300
C1286       C  0.79095749  0.38947937  0.77193304    -0.06400
H1287       H  0.77347711  0.34002031  0.82246787     0.06000
H1288       H  0.82812721  0.40059098  0.76356098     0.09400
Br1289     Br  0.74560523  0.36183904  0.71354832    -0.06100
Br1290     Br  0.70217446  0.39655209  0.87822976    -0.03100
Br1291     Br  0.82272729  0.32322547  0.84107774    -0.00200
Br1292     Br  0.77857443  0.41742038  0.74587092    -0.04600
C1293       C  0.62433665  0.31053766  0.84379480    -0.12000
C1294       C  0.64351828  0.29563140  0.83011595     0.03500
C1295       C  0.64189778  0.27025887  0.83275162    -0.12600
C1296       C  0.62145971  0.25932627  0.84905923     0.18300
C1297       C  0.60328973  0.27418717  0.86557829    -0.09600
C1298       C  0.60482097  0.29969478  0.86285287    -0.02600
H1299       H  0.65626212  0.25893379  0.82086236     0.04800
C1300       C  0.61871010  0.23255507  0.84567326     0.20300
H1301       H  0.59010519  0.31095618  0.87382789     0.10000
C1302       C  0.62284814  0.21756253  0.87650048    -0.15900
C1303       C  0.62184335  0.19202663  0.87319556     0.03000
C1304       C  0.61620185  0.18115950  0.83851627    -0.11300
C1305       C  0.61192960  0.19639521  0.80783677    -0.01300
C1306       C  0.61336453  0.22178420  0.81106847    -0.06400
H1307       H  0.62752312  0.22576288  0.90299660     0.06000
H1308       H  0.60766862  0.18853387  0.78093946     0.09400
Br1309     Br  0.57541417  0.26042368  0.88993293    -0.06100
Br1310     Br  0.67245570  0.30888748  0.80767904    -0.03100
Br1311     Br  0.63021789  0.17331362  0.91633574    -0.00200
Br1312     Br  0.60821618  0.24101501  0.76719872    -0.04600
C1313       C  0.81958314  0.01621231  0.94363869    -0.12000
C1314       C  0.80943851  0.00109232  0.91534558     0.03500
C1315       C  0.78387824  0.99897511  0.91144196    -0.12600
C1316       C  0.76770002  0.01211321  0.93450879     0.18300
C1317       C  0.77749106  0.02712461  0.96239927    -0.09600
C1318       C  0.80279824  0.02924704  0.96647071    -0.02600
H1319       H  0.77656112  0.98772718  0.88928819     0.04800
C1320       C  0.74084667  0.01230245  0.92713305     0.20300
H1321       H  0.80868945  0.04267789  0.98635590     0.10000
C1322       C  0.72459534  0.00274896  0.95340165    -0.15900
C1323       C  0.69919705  0.00635490  0.95031294     0.03000
C1324       C  0.68919440  0.01979789  0.92011227    -0.11300
C1325       C  0.70583556  0.02786875  0.89261557    -0.01300
C1326       C  0.73116629  0.02450560  0.89619222    -0.06400
H1327       H  0.73182015  0.99327754  0.97739559     0.06000
H1328       H  0.69988741  0.03757207  0.86834485     0.09400
Br1329     Br  0.75703914  0.04713235  0.99378623    -0.06100
Br1330     Br  0.82903176  0.98422180  0.87892750    -0.03100
Br1331     Br  0.67953659  0.99347901  0.48988470    -0.00200
Br1332     Br  0.75204612  0.03879660  0.85944894    -0.04600
C1333       C  0.56358092  0.10647752  0.65841552    -0.12000
C1334       C  0.57342913  0.08222582  0.65658591     0.03500
C1335       C  0.58310685  0.07306952  0.62313112    -0.12600
C1336       C  0.58635021  0.08794838  0.59200796     0.18300
C1337       C  0.57805863  0.11232426  0.59411751    -0.09600
C1338       C  0.56582096  0.12074743  0.62584786    -0.02600
H1339       H  0.58897766  0.05414103  0.62184552     0.04800
C1340       C  0.59770136  0.07759936  0.55747890     0.20300
H1341       H  0.55837259  0.13898372  0.62428510     0.10000
C1342       C  0.58595117  0.08112764  0.52330929    -0.15900
C1343       C  0.59635546  0.07307773  0.98981440     0.03000
C1344       C  0.61808652  0.05873589  0.99002500    -0.11300
C1345       C  0.62926583  0.05441127  0.52471252    -0.01300
C1346       C  0.61984819  0.06420304  0.55780247    -0.06400
H1347       H  0.56872688  0.09098928  0.52247388     0.06000
H1348       H  0.64561088  0.04326390  0.52656108     0.09400
Br1349     Br  0.58426399  0.13583955  0.55572327    -0.06100
Br1350     Br  0.57793666  0.06025345  0.69741590    -0.03100
Br1351     Br  0.58063883  0.08538358  0.94612329    -0.00200
Br1352     Br  0.63900615  0.05949057  0.60195005    -0.04600
C1353       C  0.53634221  0.31024860  0.71552586    -0.12000
C1354       C  0.52187201  0.30019430  0.74452659     0.03500
C1355       C  0.51839948  0.27480409  0.74697075    -0.12600
C1356       C  0.53018873  0.25846506  0.72258689     0.18300
C1357       C  0.54531907  0.26813566  0.69468470    -0.09600
C1358       C  0.54823480  0.29346174  0.69138675    -0.02600
H1359       H  0.50687928  0.26769613  0.76885274     0.04800
C1360       C  0.52747895  0.23145576  0.72730657     0.20300
H1361       H  0.56114445  0.29948147  0.67080879     0.10000
C1362       C  0.51804579  0.21722526  0.69813210    -0.15900
C1363       C  0.51788055  0.19156192  0.69985884     0.03000
C1364       C  0.52814029  0.17929763  0.73089087    -0.11300
C1365       C  0.53478548  0.19392268  0.76173674    -0.01300
C1366       C  0.53472696  0.21948873  0.76008202    -0.06400
H1367       H  0.51113808  0.22616759  0.67346896     0.06000
H1368       H  0.54013600  0.18591744  0.78776692     0.09400
Br1369     Br  0.56412406  0.24752553  0.66185668    -0.06100
Br1370     Br  0.50750975  0.31946880  0.78374364    -0.03100
Br1371     Br  0.50338205  0.17457528  0.65861608    -0.00200
Br1372     Br  0.54579072  0.23683248  0.80329932    -0.04600
C1373       C  0.94600911  0.10209855  0.67829248    -0.12000
C1374       C  0.96082817  0.09351428  0.64898497     0.03500
C1375       C  0.95002086  0.08321586  0.61742821    -0.12600
C1376       C  0.92447412  0.08173689  0.61435293     0.18300
C1377       C  0.90972302  0.08965675  0.64435206    -0.09600
C1378       C  0.92059043  0.09965837  0.67604573    -0.02600
H1379       H  0.96155973  0.07662592  0.59497656     0.04800
C1380       C  0.91353542  0.07154124  0.58004979     0.20300
H1381       H  0.90911766  0.10635689  0.69851687     0.10000
C1382       C  0.89984216  0.05005158  0.58240167    -0.12700
C1383       C  0.88872891  0.04002670  0.55101205     0.03000
C1384       C  0.89126456  0.05159966  0.01623170    -0.11300
C1385       C  0.90562802  0.07265817  0.01354788    -0.01300
C1386       C  0.91671792  0.08270478  0.54512202    -0.06400
H1387       H  0.89798228  0.04088689  0.60885863     0.06000
H1388       H  0.90796042  0.08146018  0.98689471     0.09400
Br1389     Br  0.87464715  0.08863664  0.64267459    -0.06100
Br1390     Br  0.99577665  0.09562003  0.65075600    -0.03100
Br1391     Br  0.87240675  0.00926608  0.55707435    -0.00200
Br1392     Br  0.93540924  0.11201427  0.53919287    -0.04600
C1393       C  0.97490450  0.17898819  0.74105979    -0.12000
C1394       C  0.95558037  0.19520384  0.73099302     0.03500
C1395       C  0.95977302  0.22033060  0.72802785    -0.12600
C1396       C  0.98308100  0.23015833  0.73355496     0.18300
C1397       C  0.00239369  0.21442336  0.74325494    -0.09600
C1398       C  0.99825817  0.18929469  0.74712430    -0.02600
H1399       H  0.94474031  0.23233327  0.72057946     0.04800
C1400       C  0.98672602  0.25678019  0.72797861     0.20300
H1401       H  0.01385773  0.17822297  0.75417320     0.10000
C1402       C  0.99284380  0.27182746  0.75811758    -0.15900
C1403       C  0.99330098  0.29734086  0.75451088     0.03000
C1404       C  0.98656777  0.30850640  0.72034235    -0.11300
C1405       C  0.98314764  0.29294088  0.68938351    -0.01300
C1406       C  0.98286915  0.26751487  0.69309689    -0.06400
H1407       H  0.99645531  0.26372417  0.78496476     0.06000
H1408       H  0.98003957  0.30001313  0.66198406     0.09400
Br1409     Br  0.03513523  0.22621121  0.74946937    -0.06100
Br1410     Br  0.92286494  0.18466783  0.71970165    -0.03100
Br1411     Br  0.00178014  0.31558763  0.79836997    -0.00200
Br1412     Br  0.97662224  0.24814416  0.64954553    -0.04600
C1413       C  0.56920206  0.38346709  0.64283367    -0.12000
C1414       C  0.55669306  0.38232772  0.60855151     0.03500
C1415       C  0.56689360  0.39288541  0.57685612    -0.12600
C1416       C  0.58957382  0.40456835  0.57840531     0.18300
C1417       C  0.60194838  0.40616879  0.61266202    -0.09600
C1418       C  0.59163867  0.39579229  0.64462277    -0.02600
H1419       H  0.55710676  0.39190480  0.55074061     0.04800
C1420       C  0.59965381  0.41525450  0.54395032     0.20300
H1421       H  0.60140835  0.39686771  0.67074054     0.10000
C1422       C  0.59082034  0.43794340  0.53182921    -0.15900
C1423       C  0.59971786  0.44854687  0.49919590     0.03000
C1424       C  0.61809898  0.43650659  0.97818721    -0.11300
C1425       C  0.62642913  0.41347217  0.49003298    -0.01300
C1426       C  0.61711978  0.40267427  0.52225937    -0.06400
H1427       H  0.57704457  0.44753343  0.54803608     0.06000
H1428       H  0.64038726  0.40387241  0.97393512     0.09400
Br1429     Br  0.63293157  0.42222705  0.61684636    -0.06100
Br1430     Br  0.52512696  0.36749684  0.60350559    -0.03100
Br1431     Br  0.58688886  0.47991574  0.48599675    -0.00200
Br1432     Br  0.62832417  0.37057024  0.53532995    -0.04600
C1433       C  0.89198266  0.43122089  0.99127936    -0.12000
C1434       C  0.89108478  0.40611231  0.49942848     0.03500
C1435       C  0.90137445  0.39735769  0.53245316    -0.12600
C1436       C  0.91315449  0.41328091  0.55725037     0.18300
C1437       C  0.91447523  0.43833494  0.54872705    -0.09600
C1438       C  0.90358192  0.44717272  0.51620793    -0.02600
H1439       H  0.90074391  0.37797556  0.53838027     0.04800
C1440       C  0.92542232  0.40312022  0.59045181     0.20300
H1441       H  0.90446323  0.46650921  0.51008505     0.10000
C1442       C  0.94999093  0.39585382  0.58770055    -0.15900
C1443       C  0.96202161  0.38521183  0.61791100     0.03000
C1444       C  0.94951448  0.38200219  0.65178735    -0.11300
C1445       C  0.92507708  0.38972359  0.65481216    -0.01300
C1446       C  0.91289933  0.39995130  0.62430585    -0.06400
H1447       H  0.95975216  0.39822700  0.56176706     0.06000
H1448       H  0.91524927  0.38712730  0.68063913     0.09400
Br1449     Br  0.93185903  0.46083230  0.57990732    -0.06100
Br1450     Br  0.87703863  0.38313606  0.96529498    -0.03100
Br1451     Br  0.99560723  0.37565685  0.61166704    -0.00200
Br1452     Br  0.87905807  0.40865641  0.62970000    -0.04600
C1453       C  0.69357515  0.46928529  0.91230794    -0.12000
C1454       C  0.70560405  0.48395122  0.88539398     0.03500
C1455       C  0.73118658  0.48659166  0.88613713    -0.12600
C1456       C  0.74559214  0.47408601  0.91215022     0.18300
C1457       C  0.73403577  0.45882867  0.93784570    -0.09600
C1458       C  0.70863260  0.45638331  0.93758086    -0.02600
H1459       H  0.74003476  0.49761097  0.86518134     0.04800
C1460       C  0.77270198  0.47404157  0.90906852     0.20300
H1461       H  0.70131338  0.44297428  0.95623089     0.10000
C1462       C  0.78710010  0.48494220  0.93673650    -0.15900
C1463       C  0.81262560  0.48152794  0.93749698     0.03000
C1464       C  0.82437819  0.46642676  0.91050597    -0.11300
C1465       C  0.80968738  0.45768355  0.88091762    -0.01300
C1466       C  0.78433923  0.46091376  0.88047876    -0.06400
H1467       H  0.77832039  0.49551276  0.95859129     0.06000
H1468       H  0.81724670  0.44791119  0.85745375     0.09400
Br1469     Br  0.75239397  0.43909098  0.97201299    -0.06100
Br1470     Br  0.68894637  0.49932349  0.84467872    -0.03100
Br1471     Br  0.83012642  0.49766788  0.47680771    -0.00200
Br1472     Br  0.76610696  0.44528517  0.84153153    -0.04600
C1473       C  0.18748492  0.87483528  0.86411674    -0.12000
C1474       C  0.20389745  0.87613147  0.83374802     0.03500
C1475       C  0.22906209  0.87494641  0.83989744    -0.12600
C1476       C  0.23853851  0.87233109  0.87573455     0.18300
C1477       C  0.22240101  0.87073468  0.90606483    -0.09600
C1478       C  0.19704753  0.87221990  0.90016693    -0.02600
H1479       H  0.24144094  0.87620999  0.81645425     0.04800
C1480       C  0.26543384  0.87189539  0.87993425     0.20300
H1481       H  0.18478914  0.87085488  0.92371778     0.10000
C1482       C  0.27765446  0.89372078  0.88829107    -0.15900
C1483       C  0.30305166  0.89553614  0.88363879     0.03000
C1484       C  0.31648049  0.87532374  0.86984243    -0.11300
C1485       C  0.30434774  0.85310470  0.86364441    -0.01300
C1486       C  0.27908695  0.85122154  0.86897414    -0.06400
H1487       H  0.26721552  0.90980060  0.89631657     0.06000
H1488       H  0.31444916  0.83733397  0.85344991     0.09400
Br1489     Br  0.23424815  0.86553513  0.95547298    -0.06100
Br1490     Br  0.19364362  0.88052039  0.78310997    -0.03100
Br1491     Br  0.31779316  0.92680773  0.89219769    -0.00200
Br1492     Br  0.26367948  0.82041590  0.85934511    -0.04600
C1493       C  0.12548426  0.67742974  0.79535907    -0.12000
C1494       C  0.14508344  0.69277701  0.80532990     0.03500
C1495       C  0.14236943  0.71812288  0.80301589    -0.12600
C1496       C  0.12030303  0.72855693  0.79104571     0.18300
C1497       C  0.10143593  0.71329508  0.77827667    -0.09600
C1498       C  0.10416190  0.68784869  0.78033922    -0.02600
H1499       H  0.15707510  0.72979967  0.81246755     0.04800
C1500       C  0.11620433  0.75491287  0.79766042     0.20300
H1501       H  0.08901593  0.67627098  0.77236980     0.10000
C1502       C  0.11844347  0.77176030  0.76862187    -0.15900
C1503       C  0.11653189  0.79699806  0.77556518     0.03000
C1504       C  0.11204550  0.80551744  0.81211694    -0.11300
C1505       C  0.10932971  0.78840482  0.84073501    -0.01300
C1506       C  0.11149293  0.76341863  0.83387889    -0.06400
H1507       H  0.12243314  0.76528812  0.74076487     0.06000
H1508       H  0.10596996  0.79450347  0.86892427     0.09400
Br1509     Br  0.07108769  0.72647945  0.76055192    -0.06100
Br1510     Br  0.17583678  0.68019845  0.82278220    -0.03100
Br1511     Br  0.12234979  0.81867179  0.73478728    -0.00200
Br1512     Br  0.10861741  0.74157594  0.87524685    -0.04600
C1513       C  0.38527657  0.68078810  0.78354129    -0.12000
C1514       C  0.40128083  0.69249631  0.75842841     0.03500
C1515       C  0.40222560  0.71815119  0.75752237    -0.12600
C1516       C  0.38735620  0.73237691  0.78104681     0.18300
C1517       C  0.37049531  0.72080741  0.80444842    -0.09600
C1518       C  0.36949155  0.69535046  0.80542139    -0.02600
H1519       H  0.41524617  0.72702912  0.73942064     0.04800
C1520       C  0.39099934  0.75906403  0.78376106     0.20300
H1521       H  0.35689525  0.68692960  0.82469087     0.10000
C1522       C  0.37697231  0.77489443  0.76178925    -0.15900
C1523       C  0.37756777  0.80024725  0.76776544     0.03000
C1524       C  0.39266592  0.81003333  0.79590368    -0.11300
C1525       C  0.40749299  0.79410978  0.81661419    -0.01300
C1526       C  0.40653136  0.76884075  0.81107257    -0.06400
H1527       H  0.36464142  0.76741380  0.74118391     0.06000
H1528       H  0.41933988  0.80130892  0.83803128     0.09400
Br1529     Br  0.34961055  0.73907351  0.83749645    -0.06100
Br1530     Br  0.42338496  0.67489517  0.72648388    -0.03100
Br1531     Br  0.35536714  0.82010929  0.73959686    -0.00200
Br1532     Br  0.42529050  0.74811663  0.84323077    -0.04600
C1533       C  0.32671213  0.59394315  0.86977078    -0.12000
C1534       C  0.31300526  0.61142596  0.88997368     0.03500
C1535       C  0.28756431  0.60917199  0.89254773    -0.12600
C1536       C  0.27547744  0.58999369  0.87440168     0.18300
C1537       C  0.28935521  0.57156818  0.85660753    -0.09600
C1538       C  0.31484238  0.57340325  0.85506920    -0.02600
H1539       H  0.27702518  0.62350132  0.90609923     0.04800
C1540       C  0.24897370  0.59250266  0.86727234     0.20300
H1541       H  0.32509685  0.56007370  0.83888622     0.10000
C1542       C  0.24178173  0.60133170  0.83256489    -0.15900
C1543       C  0.21719002  0.60536695  0.82421246     0.03000
C1544       C  0.19891153  0.59995870  0.85087180    -0.11300
C1545       C  0.20626889  0.59135207  0.88596602    -0.01300
C1546       C  0.23110019  0.58784725  0.89438443    -0.06400
H1547       H  0.25556894  0.60553897  0.81192483     0.06000
H1548       H  0.19269799  0.58722581  0.90692627     0.09400
Br1549     Br  0.27412695  0.54517254  0.83023771    -0.06100
Br1550     Br  0.32798399  0.63957239  0.91213196    -0.03100
Br1551     Br  0.21068905  0.61923793  0.77623696    -0.00200
Br1552     Br  0.23984057  0.57652753  0.94288830    -0.04600
C1553       C  0.00830716  0.58152794  0.91802323    -0.12000
C1554       C  0.99128916  0.57838671  0.94704008     0.03500
C1555       C  0.97424355  0.55944970  0.94531264    -0.12600
C1556       C  0.97392347  0.54310795  0.91518533     0.18300
C1557       C  0.99144868  0.54571291  0.88668281    -0.09600
C1558       C  0.00853539  0.56477051  0.88836411    -0.02600
H1559       H  0.96101028  0.55755289  0.96752766     0.04800
C1560       C  0.95449497  0.52423764  0.91361185     0.20300
H1561       H  0.02174256  0.56678145  0.86614462     0.10000
C1562       C  0.93630625  0.52584835  0.88625592    -0.15900
C1563       C  0.91668776  0.50945459  0.88544692     0.03000
C1564       C  0.91475436  0.49115730  0.91288699    -0.11300
C1565       C  0.93338440  0.48922525  0.93961978    -0.01300
C1566       C  0.95302446  0.50554094  0.94025415    -0.06400
H1567       H  0.93733471  0.54004737  0.86546025     0.06000
H1568       H  0.93260739  0.47511114  0.96049373     0.09400
Br1569     Br  0.99295499  0.52346742  0.84537304    -0.06100
Br1570     Br  0.99115796  0.59875406  0.99048630    -0.03100
Br1571     Br  0.89429118  0.51209202  0.84462151    -0.00200
Br1572     Br  0.97763540  0.50123298  0.97765634    -0.04600
C1573       C  0.99944117  0.89109183  0.94827422    -0.12000
C1574       C  0.97930134  0.89148696  0.97291473     0.03500
C1575       C  0.96163802  0.91010868  0.97037814    -0.12600
C1576       C  0.96364156  0.92854306  0.94362110     0.18300
C1577       C  0.98392933  0.92840360  0.91949115    -0.09600
C1578       C  0.00163256  0.90983641  0.92201717    -0.02600
H1579       H  0.94639538  0.91038220  0.98964357     0.04800
C1580       C  0.94510779  0.94847537  0.94272343     0.20300
H1581       H  0.01703244  0.90985948  0.90304344     0.10000
C1582       C  0.94800586  0.96866190  0.96623174    -0.15900
C1583       C  0.93060034  0.98756556  0.96745327     0.03000
C1584       C  0.90955012  0.98665009  0.94439249    -0.11300
C1585       C  0.90694012  0.96628024  0.92057192    -0.01300
C1586       C  0.92437424  0.94733541  0.91973518    -0.06400
H1587       H  0.96380618  0.96948309  0.98433840     0.06000
H1588       H  0.89117748  0.96500719  0.90249012     0.09400
Br1589     Br  0.98818859  0.95330955  0.88283675    -0.06100
Br1590     Br  0.97586016  0.86810785  0.01211799    -0.03100
Br1591     Br  0.93659311  0.01244293  0.00378878    -0.00200
Br1592     Br  0.91898448  0.91997113  0.88735466    -0.04600
C1593       C  0.02950293  0.67207145  0.92027729    -0.12000
C1594       C  0.01744740  0.68275434  0.95150163     0.03500
C1595       C  0.01489457  0.70828680  0.95445050    -0.12600
C1596       C  0.02276649  0.72362348  0.92585331     0.18300
C1597       C  0.03112292  0.71299517  0.89260959    -0.09600
C1598       C  0.03428505  0.68763812  0.88987750    -0.02600
H1599       H  0.00738871  0.71624294  0.97965074     0.04800
C1600       C  0.02479370  0.75042355  0.93217893     0.20300
H1601       H  0.04054314  0.68053581  0.86353970     0.10000
C1602       C  0.04809969  0.76027626  0.93703478    -0.15900
C1603       C  0.05155529  0.78543067  0.94148603     0.03000
C1604       C  0.03124961  0.80186750  0.94175552    -0.11300
C1605       C  0.00770986  0.79157502  0.93712778    -0.01300
C1606       C  0.00447725  0.76625995  0.93218084    -0.06400
H1607       H  0.06389472  0.74820692  0.93680960     0.06000
H1608       H  0.99150407  0.80281804  0.93657117     0.09400
Br1609     Br  0.03854686  0.73269694  0.85022850    -0.06100
Br1610     Br  0.00410476  0.66391467  0.99141304    -0.03100
Br1611     Br  0.08500303  0.79553767  0.94589216    -0.00200
Br1612     Br  0.97212332  0.75415876  0.92357326    -0.04600
C1613       C  0.07182346  0.60294435  0.99016704    -0.12000
C1614       C  0.08974802  0.61519078  0.51151406     0.03500
C1615       C  0.09904830  0.60434510  0.54370769    -0.12600
C1616       C  0.09230639  0.58060194  0.55416001     0.18300
C1617       C  0.07514958  0.56796438  0.53194285    -0.09600
C1618       C  0.06488144  0.57932410  0.50082377    -0.02600
H1619       H  0.11204685  0.61443885  0.56039410     0.04800
C1620       C  0.10317355  0.56966146  0.58835732     0.20300
H1621       H  0.05122339  0.56951544  0.98485276     0.10000
C1622       C  0.08782471  0.55953507  0.61536583    -0.15900
C1623       C  0.09725518  0.54777949  0.64677370     0.03000
C1624       C  0.12275952  0.54866876  0.65451385    -0.11300
C1625       C  0.13789847  0.56011980  0.62802720    -0.01300
C1626       C  0.12860856  0.56930680  0.59469365    -0.06400
H1627       H  0.06821292  0.55977975  0.61116481     0.06000
H1628       H  0.15737620  0.56161660  0.63245923     0.09400
Br1629     Br  0.06577924  0.53473549  0.54121743    -0.06100
Br1630     Br  0.10413447  0.64558067  0.49669472    -0.03100
Br1631     Br  0.07384449  0.52832135  0.67303752    -0.00200
Br1632     Br  0.15193668  0.57907569  0.55771721    -0.04600
C1633       C  0.10542575  0.48749992  0.73236316    -0.12000
C1634       C  0.10404542  0.46892136  0.70510508     0.03500
C1635       C  0.08475539  0.45232088  0.70584791    -0.12600
C1636       C  0.06638805  0.45416797  0.73292530     0.18300
C1637       C  0.06738680  0.47310889  0.75952136    -0.09600
C1638       C  0.08683259  0.48965318  0.75903663    -0.02600
H1639       H  0.08391963  0.43801354  0.68496080     0.04800
C1640       C  0.04653251  0.43595660  0.73286318     0.20300
H1641       H  0.08748034  0.50420261  0.77954314     0.10000
C1642       C  0.04546017  0.41864318  0.76138856    -0.15900
C1643       C  0.02798392  0.40006530  0.76067828     0.03000
C1644       C  0.01169712  0.39822481  0.73050518    -0.11300
C1645       C  0.01212168  0.41617060  0.70280462    -0.01300
C1646       C  0.02932099  0.43499239  0.70385123    -0.06400
H1647       H  0.05830948  0.41957649  0.78423472     0.06000
H1648       H  0.99926530  0.41533834  0.67996179     0.09400
Br1649     Br  0.04214910  0.47756679  0.79598777    -0.06100
Br1650     Br  0.12687728  0.46644334  0.66459670    -0.03100
Br1651     Br  0.02598241  0.37886820  0.80275153    -0.00200
Br1652     Br  0.02832691  0.45932371  0.66566805    -0.04600
C1653       C  0.50641861  0.39926264  0.72121667    -0.12000
C1654       C  0.50774382  0.41825438  0.74789024     0.03500
C1655       C  0.48957030  0.43648795  0.74917841    -0.12600
C1656       C  0.46974183  0.43609440  0.72448546     0.18300
C1657       C  0.46806787  0.41681357  0.69850497    -0.09600
C1658       C  0.48626138  0.39867820  0.69704338    -0.02600
H1659       H  0.49091545  0.45107472  0.76953670     0.04800
C1660       C  0.45146607  0.45634406  0.72502818     0.20300
H1661       H  0.48476436  0.38413879  0.67663343     0.10000
C1662       C  0.45115028  0.47297379  0.69559311    -0.15900
C1663       C  0.43324394  0.49132815  0.69335945     0.03000
C1664       C  0.41508247  0.49352606  0.72123918    -0.11300
C1665       C  0.41588038  0.47717520  0.75130386    -0.01300
C1666       C  0.43387197  0.45880371  0.75342836    -0.06400
H1667       H  0.46457107  0.47118158  0.67355035     0.06000
H1668       H  0.40208072  0.47836760  0.77287283     0.09400
Br1669     Br  0.44093833  0.41422159  0.66497812    -0.06100
Br1670     Br  0.53292430  0.41943812  0.78485718    -0.03100
Br1671     Br  0.43369907  0.51084798  0.64949376    -0.00200
Br1672     Br  0.43290001  0.43664858  0.79447790    -0.04600
C1673       C  0.32424194  0.51135898  0.71450726    -0.12000
C1674       C  0.31339762  0.50424031  0.74861955     0.03500
C1675       C  0.28806706  0.50012495  0.75066155    -0.12600
C1676       C  0.27342351  0.50187249  0.71883595     0.18300
C1677       C  0.28467309  0.50499249  0.68421649    -0.09600
C1678       C  0.30977229  0.50922922  0.68212249    -0.02600
H1679       H  0.27966401  0.49677408  0.77728051     0.04800
C1680       C  0.24663416  0.50507476  0.72243520     0.20300
H1681       H  0.31739409  0.51099225  0.65481707     0.10000
C1682       C  0.23719072  0.52860245  0.71754156    -0.15900
C1683       C  0.21208284  0.53310265  0.71803315     0.03000
C1684       C  0.19533973  0.51380240  0.72470604    -0.11300
C1685       C  0.20514236  0.49004977  0.73000026    -0.01300
C1686       C  0.23048982  0.48562701  0.72848724    -0.06400
H1687       H  0.24956511  0.54361218  0.71240000     0.06000
H1688       H  0.19350610  0.47457182  0.73476554     0.09400
Br1689     Br  0.26613545  0.50495441  0.63894216    -0.06100
Br1690     Br  0.33184631  0.50018870  0.79358205    -0.03100
Br1691     Br  0.20244248  0.56631435  0.70798055    -0.00200
Br1692     Br  0.24223916  0.45267401  0.73281611    -0.04600
C1693       C  0.11503392  0.93084061  0.67862440    -0.12000
C1694       C  0.11597881  0.94117516  0.64276816     0.03500
C1695       C  0.10570167  0.92872959  0.61259266    -0.12600
C1696       C  0.09494314  0.90574783  0.61718406     0.18300
C1697       C  0.09472126  0.89505457  0.65268407    -0.09600
C1698       C  0.10433556  0.90780444  0.68316243    -0.02600
H1699       H  0.10605464  0.93703177  0.58534360     0.04800
C1700       C  0.08398364  0.89347994  0.58446642     0.20300
H1701       H  0.10385978  0.89951388  0.71040872     0.10000
C1702       C  0.09702160  0.87484187  0.56617370    -0.15900
C1703       C  0.08786823  0.86406304  0.53367135     0.03000
C1704       C  0.06521906  0.87185292  0.01903332    -0.11300
C1705       C  0.05219982  0.89053121  0.53743480    -0.01300
C1706       C  0.06137087  0.90127945  0.56991911    -0.06400
H1707       H  0.11465179  0.86905327  0.57678606     0.06000
H1708       H  0.03476186  0.89667205  0.02665710     0.09400
Br1709     Br  0.08154572  0.86313874  0.66080393    -0.06100
Br1710     Br  0.12983943  0.97272905  0.63348161    -0.03100
Br1711     Br  0.10805191  0.84024406  0.00909142    -0.00200
Br1712     Br  0.04232526  0.92638042  0.59383653    -0.04600
C1713       C  0.00515135  0.09113410  0.76338475    -0.12000
C1714       C  0.00315308  0.07172040  0.78882475     0.03500
C1715       C  0.02126808  0.05346657  0.78987694    -0.12600
C1716       C  0.04125444  0.05401547  0.76542736     0.18300
C1717       C  0.04330485  0.07343113  0.74016577    -0.09600
C1718       C  0.02559568  0.09192365  0.73974547    -0.02600
H1719       H  0.01952186  0.03852628  0.80931364     0.04800
C1720       C  0.05894091  0.03344766  0.76457243     0.20300
H1721       H  0.02741858  0.10663054  0.71992610     0.10000
C1722       C  0.05772495  0.01665573  0.73519494    -0.15900
C1723       C  0.07516317  0.99802836  0.73125421     0.03000
C1724       C  0.09445855  0.99590125  0.75715081    -0.11300
C1725       C  0.09522392  0.01245052  0.78723319    -0.01300
C1726       C  0.07760370  0.03102951  0.79117673    -0.06400
H1727       H  0.04341554  0.01849128  0.71457521     0.06000
H1728       H  0.10972942  0.01105336  0.80759403     0.09400
Br1729     Br  0.06961568  0.07509971  0.70493167    -0.06100
Br1730     Br  0.97665602  0.06954615  0.82345821    -0.03100
Br1731     Br  0.07226699  0.97771059  0.68809971    -0.00200
Br1732     Br  0.08019614  0.05323245  0.83237690    -0.04600
C1733       C  0.40239369  0.99986700  0.73671044    -0.12000
C1734       C  0.40505926  0.01643509  0.70715943     0.03500
C1735       C  0.42316324  0.03438965  0.70857336    -0.12600
C1736       C  0.43914605  0.03618442  0.73894701     0.18300
C1737       C  0.43615566  0.01991184  0.76897004    -0.09600
C1738       C  0.41801481  0.00180677  0.76747676    -0.02600
H1739       H  0.42505426  0.04684325  0.68546029     0.04800
C1740       C  0.45897656  0.05480129  0.73786010     0.20300
H1741       H  0.41603370  0.98925354  0.79044548     0.10000
C1742       C  0.45940889  0.07387645  0.76414442    -0.15900
C1743       C  0.47719657  0.09227444  0.76247510     0.03000
C1744       C  0.49464343  0.09220941  0.73344859    -0.11300
C1745       C  0.49444454  0.07289755  0.70763499    -0.01300
C1746       C  0.47695013  0.05433180  0.70966109    -0.06400
H1747       H  0.44587645  0.07442906  0.78613882     0.06000
H1748       H  0.50800430  0.07224287  0.68566783     0.09400
Br1749     Br  0.45678396  0.02109423  0.81200620    -0.06100
Br1750     Br  0.38530129  0.01450998  0.66322641    -0.03100
Br1751     Br  0.47791436  0.11581186  0.80219559    -0.00200
Br1752     Br  0.47898980  0.02822566  0.67391648    -0.04600
C1753       C  0.31465528  0.97081922  0.73026254    -0.12000
C1754       C  0.30320814  0.97895170  0.76363197     0.03500
C1755       C  0.27771839  0.98137459  0.76557414    -0.12600
C1756       C  0.26289516  0.97621215  0.73485169     0.18300
C1757       C  0.27413766  0.97076014  0.70062887    -0.09600
C1758       C  0.29963123  0.96838786  0.69847082    -0.02600
H1759       H  0.26926561  0.98630546  0.79182667     0.04800
C1760       C  0.23602765  0.97404971  0.74028084     0.20300
H1761       H  0.30713187  0.96437481  0.67149117     0.10000
C1762       C  0.21967643  0.98972813  0.72201729    -0.15900
C1763       C  0.19421407  0.98690858  0.72558046     0.03000
C1764       C  0.18440042  0.96855873  0.74916984    -0.11300
C1765       C  0.20135173  0.95297664  0.76715373    -0.01300
C1766       C  0.22656761  0.95556700  0.76295461    -0.06400
H1767       H  0.22677414  0.00383314  0.70403362     0.06000
H1768       H  0.19561337  0.93741765  0.78288523     0.09400
Br1769     Br  0.25553273  0.96474641  0.65633605    -0.06100
Br1770     Br  0.32083263  0.98620199  0.80850872    -0.03100
Br1771     Br  0.17443073  0.00780607  0.69502150    -0.00200
Br1772     Br  0.24728260  0.93173003  0.78652355    -0.04600
C1773       C  0.44097644  0.60166841  0.97329945    -0.12000
C1774       C  0.44602589  0.57717897  0.98371100     0.03500
C1775       C  0.43394493  0.56692185  0.51425064    -0.12600
C1776       C  0.41655604  0.58042900  0.53442279     0.18300
C1777       C  0.40991172  0.60385072  0.52220076    -0.09600
C1778       C  0.42189405  0.61407294  0.49185710    -0.02600
H1779       H  0.43883439  0.54866861  0.52327006     0.04800
C1780       C  0.40716818  0.57070544  0.56984827     0.20300
H1781       H  0.41659100  0.63230157  0.48332855     0.10000
C1782       C  0.41390217  0.58223098  0.60319077    -0.15900
C1783       C  0.40569025  0.57361101  0.63752966     0.03000
C1784       C  0.39075392  0.55265532  0.63887552    -0.11300
C1785       C  0.38428725  0.54108615  0.60518996    -0.01300
C1786       C  0.39215265  0.55000807  0.57099845    -0.06400
H1787       H  0.42545306  0.59825894  0.60240382     0.06000
H1788       H  0.37308393  0.52483139  0.60536316     0.09400
Br1789     Br  0.38488242  0.62279117  0.54651369    -0.06100
Br1790     Br  0.46987513  0.55651728  0.96019240    -0.03100
Br1791     Br  0.41423270  0.59249298  0.68056705    -0.00200
Br1792     Br  0.38113932  0.53383121  0.52669604    -0.04600
C1793       C  0.60637984  0.50418184  0.90440638    -0.12000
C1794       C  0.60830403  0.52628560  0.92485366     0.03500
C1795       C  0.59016180  0.54429145  0.92171488    -0.12600
C1796       C  0.56901898  0.54039366  0.90048741     0.18300
C1797       C  0.56689004  0.51828046  0.88038984    -0.09600
C1798       C  0.58557927  0.50062081  0.88213439    -0.02600
H1799       H  0.59202517  0.56110507  0.93747664     0.04800
C1800       C  0.54904491  0.55909087  0.90151730     0.20300
H1801       H  0.58358632  0.48378976  0.86647937     0.10000
C1802       C  0.54059010  0.56977280  0.86839253    -0.15900
C1803       C  0.52158869  0.58716478  0.86887933     0.03000
C1804       C  0.51147978  0.59489746  0.90292342    -0.11300
C1805       C  0.52049185  0.58500810  0.93598834    -0.01300
C1806       C  0.53852173  0.56676872  0.93554690    -0.06400
H1807       H  0.54861633  0.56438895  0.84205322     0.06000
H1808       H  0.51283946  0.59096255  0.96232499     0.09400
Br1809     Br  0.53813152  0.51042408  0.85232813    -0.06100
Br1810     Br  0.63303962  0.53197754  0.96178316    -0.03100
Br1811     Br  0.50975851  0.59975952  0.82264642    -0.00200
Br1812     Br  0.54661233  0.55177232  0.98211019    -0.04600
C1813       C  0.38913020  0.93665100  0.65967023    -0.12000
C1814       C  0.40716815  0.91793551  0.65980361     0.03500
C1815       C  0.41650567  0.90876955  0.62619755    -0.12600
C1816       C  0.40838259  0.91781321  0.59206380     0.18300
C1817       C  0.39102571  0.93678410  0.59158314    -0.09600
C1818       C  0.38174360  0.94612435  0.62501616    -0.02600
H1819       H  0.43001920  0.89419852  0.62663199     0.04800
C1820       C  0.41840930  0.90724535  0.55731975     0.20300
H1821       H  0.36849111  0.96088584  0.62377831     0.10000
C1822       C  0.40508390  0.88941021  0.53799063    -0.15900
C1823       C  0.41465627  0.87836569  0.00601086     0.03000
C1824       C  0.43807678  0.88492970  0.99318042    -0.11300
C1825       C  0.45104169  0.90332086  0.51181593    -0.01300
C1826       C  0.44131335  0.91454271  0.54359861    -0.06400
H1827       H  0.38716005  0.88413015  0.54788612     0.06000
H1828       H  0.46890421  0.90879750  0.50189493     0.09400
Br1829     Br  0.37958440  0.95049973  0.54583624    -0.06100
Br1830     Br  0.41929008  0.90264021  0.70367869    -0.03100
Br1831     Br  0.39441118  0.85587584  0.97924476    -0.00200
Br1832     Br  0.45960545  0.94012134  0.56704320    -0.04600
C1833       C  0.59970891  0.99225591  0.92019924    -0.12000
C1834       C  0.59825545  0.97288038  0.89417636     0.03500
C1835       C  0.57882116  0.95626717  0.89587539    -0.12600
C1836       C  0.56045767  0.95863079  0.92293180     0.18300
C1837       C  0.56154266  0.97821245  0.94837645    -0.09600
C1838       C  0.58098316  0.99482382  0.94682200    -0.02600
H1839       H  0.57800527  0.94139678  0.87592878     0.04800
C1840       C  0.54101483  0.93981689  0.92510206     0.20300
H1841       H  0.58162290  0.00966382  0.96684535     0.10000
C1842       C  0.54480941  0.91921777  0.94737821    -0.15900
C1843       C  0.52736558  0.90055767  0.94929178     0.03000
C1844       C  0.50585877  0.90185696  0.92747795    -0.11300
C1845       C  0.50184897  0.92293945  0.90600767    -0.01300
C1846       C  0.51904165  0.94188563  0.90500658    -0.06400
H1847       H  0.56135355  0.91781167  0.96378043     0.06000
H1848       H  0.48537710  0.92463603  0.88953350     0.09400
Br1849     Br  0.53687804  0.98279550  0.98573586    -0.06100
Br1850     Br  0.62127545  0.96900969  0.85425208    -0.03100
Br1851     Br  0.53320993  0.87511133  0.98476504    -0.00200
Br1852     Br  0.51164263  0.97040950  0.87630402    -0.04600
C1853       C  0.47351079  0.81245746  0.92371910    -0.12000
C1854       C  0.45287284  0.79668472  0.92190033     0.03500
C1855       C  0.45586475  0.77128836  0.92262907    -0.12600
C1856       C  0.47900121  0.76042169  0.92492987     0.18300
C1857       C  0.49964550  0.77564522  0.92671328    -0.09600
C1858       C  0.49685822  0.80126573  0.92615561    -0.02600
H1859       H  0.43981384  0.75978233  0.92169694     0.04800
C1860       C  0.48066854  0.73317885  0.92562676     0.20300
H1861       H  0.51320682  0.81206761  0.92845419     0.10000
C1862       C  0.48955907  0.72032475  0.89458394    -0.15900
C1863       C  0.48796956  0.69468102  0.89222117     0.03000
C1864       C  0.47741482  0.68095554  0.92161384    -0.11300
C1865       C  0.46959127  0.69428337  0.95338432    -0.01300
C1866       C  0.47087787  0.71981609  0.95530155    -0.06400
H1867       H  0.49687216  0.73040301  0.87129432     0.06000
H1868       H  0.46155732  0.68559232  0.97706892     0.09400
Br1869     Br  0.53191536  0.76223016  0.93204399    -0.06100
Br1870     Br  0.41953650  0.80794260  0.91899281    -0.03100
Br1871     Br  0.49935298  0.67994392  0.84676051    -0.00200
Br1872     Br  0.45822280  0.73572283  0.99904857    -0.04600
loop_ 
_geom_bond_atom_site_label_1 
_geom_bond_atom_site_label_2 
_geom_bond_distance 
_geom_bond_site_symmetry_2 
_ccdc_geom_bond_type 
C1            C2   1.534       .  S
C1            C7   1.543       .  S
C1            C5   1.551       .  S
C1          C917   1.548       .  S
C2            H9   1.087       .  S
C2            C3   1.363       .  D
C3            C4   1.537       .  S
C3          C142   1.470       .  S
C4            C8   1.530       .  S
C4            C6   1.546       .  S
C4           H10   1.111       .  S
C5           H11   1.081       .  S
C5            C6   1.377       .  D
C6          C908   1.498       .  S
C7           H12   1.086       .  S
C7            C8   1.364       .  D
C8          C888   1.480       .  S
C13          C14   1.551       .  S
C13          C19   1.539       .  S
C13          C17   1.537       .  S
C13         C928   1.554       .  S
C14          H21   1.078       .  S
C14          C15   1.371       .  D
C15          C16   1.536       .  S
C15         C837   1.498       .  S
C16          C20   1.532       .  S
C16          C18   1.547       .  S
C16          H22   1.107       .  S
C17          H23   1.086       .  S
C17          C18   1.368       .  D
C18         C868   1.480       .  S
C19          H24   1.087       .  S
C19          C20   1.365       .  D
C20         C107   1.473       .  S
C25          C26   1.532       .  S
C25          C31   1.548       .  S
C25          C29   1.535       .  S
C25         C817   1.544       .  S
C26          H33   1.087       .  S
C26          C27   1.362       .  D
C27          C28   1.547       .  S
C27         C137   1.477       .  S
C28          C32   1.546       .  S
C28          C30   1.545       .  S
C28          H34   1.108       .  S
C29          H35   1.086   1_565  S
C29          C30   1.367       .  D
C30         C797   1.485       .  S
C31          H36   1.080       .  S
C31          C32   1.370       .  D
C32         C877   1.502       .  S
C37          C38   1.535       .  S
C37          C43   1.547       .  S
C37          C41   1.541       .  S
C37         C828   1.547       .  S
C38          H45   1.087       .  S
C38          C39   1.361       .  D
C39          C40   1.541       .  S
C39         C757   1.483       .  S
C40          C44   1.537       .  S
C40          C42   1.550       .  S
C40          H46   1.110       .  S
C41          H47   1.085   1_565  S
C41          C42   1.375       .  D
C42         C788   1.491       .  S
C43          H48   1.081       .  S
C43          C44   1.362       .  D
C44         C124   1.481       .  S
C49          C50   1.541       .  S
C49          C55   1.535       .  S
C49          C53   1.533       .  S
C49         C737   1.542       .  S
C50          H57   1.079       .  S
C50          C51   1.364       .  D
C51          C52   1.547       .  S
C51         C848   1.492       .  S
C52          C56   1.550       .  S
C52          C54   1.550       .  S
C52          H58   1.108       .  S
C53          H59   1.086       .  S
C53          C54   1.368       .  D
C54         C728   1.497       .  S
C55          H60   1.087       .  S
C55          C56   1.368       .  D
C56          C98   1.485       .  S
C61          C62   1.534       .  S
C61          C67   1.540       .  S
C61          C65   1.541       .  S
C61         C748   1.539       .  S
C62          H69   1.087       .  S
C62          C63   1.359       .  D
C63          C64   1.530       .  S
C63         C116   1.471       .  S
C64          C68   1.545       .  S
C64          C66   1.543       .  S
C64          H70   1.102       .  S
C65          H71   1.082       .  S
C65          C66   1.370       .  D
C66         C697   1.476       .  S
C67          H72   1.084       .  S
C67          C68   1.375       .  D
C68         C688   1.511       .  S
C73          C74   1.543       .  S
C73          C79   1.536       .  S
C73          C77   1.550       .  S
C73         C668   1.548       .  S
C74          H81   1.086       .  S
C74          C75   1.367       .  D
C75          C76   1.539       .  S
C75         C768   1.487       .  S
C76          C80   1.538       .  S
C76          C78   1.543       .  S
C76          H82   1.111       .  S
C77          H83   1.081   1_455  S
C77          C78   1.372       .  D
C78         C637   1.489   1_455  S
C79          H84   1.087       .  S
C79          C80   1.363       .  D
C80         C133   1.477       .  S
C85          C86   1.547       .  S
C85          C91   1.544       .  S
C85          C89   1.536       .  S
C85         C657   1.550       .  S
C86          H93   1.083       .  S
C86          C87   1.362       .  D
C87          C88   1.535       .  S
C87         C111   1.477       .  S
C88          C92   1.541       .  S
C88          C90   1.544       .  S
C88          H94   1.111       .  S
C89          H95   1.086   1_455  S
C89          C90   1.370       .  D
C90         C617   1.485       .  S
C91          H96   1.084       .  S
C91          C92   1.370       .  D
C92         C677   1.492       .  S
In97         O99   2.247       .  S
In97        O100   2.268       .  S
In97        O108   2.212       .  S
In97        O102   2.276       .  S
In97        O104   2.239       .  S
In97        O105   2.267       .  S
In97        O106   2.303       .  S
In97        O109   2.229       .  S
C98         O104   1.257       .  A
C98         O106   1.261       .  A
O99         C107   1.256       .  A
O100        C107   1.261       .  A
C101        O108   1.260       .  A
C101        O102   1.268       .  A
C101        C577   1.487       .  S
C103        O105   1.264       .  A
C103        O109   1.257       .  A
C103        C597   1.471       .  S
In110       O112   2.227       .  S
In110       O113   2.259       .  S
In110       O121   2.211       .  S
In110       O115   2.263       .  S
In110       O117   2.279       .  S
In110       O118   2.258       .  S
In110       O119   2.240       .  S
In110       O122   2.242       .  S
C111        O117   1.262       .  A
C111        O119   1.258       .  A
O112        C120   1.261       .  A
O113        C120   1.264       .  A
C114        O121   1.260       .  A
C114        O115   1.268       .  A
C114        C608   1.486       .  S
C116        O118   1.261       .  A
C116        O122   1.259       .  A
C120        C557   1.475       .  S
In123       O125   2.243       .  S
In123       O126   2.272       .  S
In123       O134   2.213       .  S
In123       O128   2.262       .  S
In123       O130   2.282       .  S
In123       O131   2.268       .  S
In123       O132   2.236       .  S
In123       O135   2.214       .  S
C124        O130   1.262       .  A
C124        O132   1.260       .  A
O125        C133   1.260       .  A
O126        C133   1.262       .  A
C127        O134   1.261       .  A
C127        O128   1.266       .  A
C127        C568   1.480       .  S
C129        O131   1.267       .  A
C129        O135   1.259       .  A
C129        C537   1.482       .  S
In136       O138   2.235       .  S
In136       O139   2.266       .  S
In136       O147   2.259       .  S
In136       O141   2.231       .  S
In136       O143   2.263       .  S
In136       O144   2.259       .  S
In136       O145   2.253       .  S
In136       O148   2.243       .  S
C137        O143   1.257       .  A
C137        O145   1.258       .  A
O138        C146   1.259       .  A
O139        C146   1.264       .  A
C140        O147   1.265       .  A
C140        O141   1.261       .  A
C140        C588   1.479       .  S
C142        O144   1.261       .  A
C142        O148   1.259       .  A
C146        C548   1.478       .  S
C149        C150   1.545       .  S
C149        C155   1.542       .  S
C149        C153   1.542       .  S
C149        C528   1.551       .  S
C150        H157   1.086       .  S
C150        C151   1.366       .  D
C151        C152   1.536       .  S
C151        C497   1.479       .  S
C152        C156   1.532       .  S
C152        C154   1.543       .  S
C152        H158   1.111       .  S
C153        H159   1.085       .  S
C153        C154   1.375       .  D
C154        C628   1.493       .  S
C155        H160   1.083       .  S
C155        C156   1.358       .  D
C156        C285   1.471       .  S
C161        C162   1.532       .  S
C161        C167   1.550       .  S
C161        C165   1.537       .  S
C161        C517   1.548       .  S
C162        H169   1.086       .  S
C162        C163   1.366       .  D
C163        C164   1.540       .  S
C163        C246   1.475       .  S
C164        C168   1.536       .  S
C164        C166   1.552       .  S
C164        H170   1.110       .  S
C165        H171   1.083       .  S
C165        C166   1.373       .  D
C166        C857   1.495       .  S
C167        H172   1.082       .  S
C167        C168   1.361       .  D
C168        C488   1.487       .  S
C173        C174   1.552       .  S
C173        C179   1.530       .  S
C173        C177   1.541   1_655  S
C173        C468   1.543       .  S
C174        H181   1.080       .  S
C174        C175   1.365       .  D
C175        C176   1.534       .  S
C175        C508   1.481       .  S
C176        C180   1.532       .  S
C176        C178   1.539       .  S
C176        H182   1.111       .  S
C177        H183   1.086       .  S
C177        C178   1.374   1_455  D
C178        C708   1.480   1_655  S
C179        H184   1.088       .  S
C179        C180   1.356       .  D
C180        C294   1.460       .  S
C185        C186   1.536       .  S
C185        C191   1.537       .  S
C185        C189   1.549       .  S
C185        C457   1.543       .  S
C186        H193   1.087       .  S
C186        C187   1.365       .  D
C187        C188   1.536       .  S
C187        C277   1.476       .  S
C188        C192   1.536       .  S
C188        C190   1.541       .  S
C188        H194   1.111       .  S
C189        H195   1.080   1_655  S
C189        C190   1.370       .  D
C190        C777   1.487   1_655  S
C191        H196   1.086       .  S
C191        C192   1.364       .  D
C192        C437   1.472       .  S
C197        C198   1.533       .  S
C197        C203   1.548       .  S
C197        C201   1.543       .  S
C197        C417   1.550       .  S
C198        H205   1.087       .  S
C198        C199   1.363       .  D
C199        C200   1.538       .  S
C199        C251   1.475       .  S
C200        C204   1.539       .  S
C200        C202   1.548       .  S
C200        H206   1.111       .  S
C201        H207   1.085       .  S
C201        C202   1.373       .  D
C202        C717   1.492       .  S
C203        H208   1.082       .  S
C203        C204   1.366       .  D
C204        C477   1.487       .  S
C209        C210   1.541       .  S
C209        C215   1.539       .  S
C209        C213   1.535       .  S
C209        C428   1.549       .  S
C210        H217   1.081       .  S
C210        C211   1.381       .  D
C211        C212   1.552       .  S
C211        C397   1.526       .  S
C212        C216   1.537       .  S
C212        C214   1.542       .  S
C212        H218   1.094       .  S
C213        H219   1.086       .  S
C213        C214   1.368       .  D
C214        C808   1.492       .  S
C215        H220   1.083       .  S
C215        C216   1.360       .  D
C216        C268   1.470       .  S
C221        C222   1.530       .  S
C221        C227   1.546       .  S
C221        C225   1.545   1_545  S
C221        C377   1.552       .  S
C222        H229   1.086       .  S
C222        C223   1.362       .  D
C223        C224   1.541       .  S
C223        C272   1.479       .  S
C224        C228   1.536       .  S
C224        C226   1.552       .  S
C224        H230   1.109       .  S
C225        H231   1.085       .  S
C225        C226   1.379   1_565  D
C226        C648   1.505   1_545  S
C227        H232   1.081       .  S
C227        C228   1.360       .  D
C228        C448   1.481       .  S
C233        C234   1.542       .  S
C233        C239   1.542       .  S
C233        C237   1.542       .  S
C233        C388   1.552       .  S
C234        H241   1.085       .  S
C234        C235   1.374       .  D
C235        C236   1.544       .  S
C235        C408   1.508       .  S
C236        C240   1.538       .  S
C236        C238   1.540       .  S
C236        H242   1.103       .  S
C237        H243   1.085   1_545  S
C237        C238   1.371       .  D
C238        C897   1.494   1_545  S
C239        H244   1.081       .  S
C239        C240   1.362       .  D
C240        C259   1.472       .  S
In245       O247   2.212       .  S
In245       O248   2.264       .  S
In245       O256   2.205       .  S
In245       O250   2.262       .  S
In245       O252   2.264       .  S
In245       O253   2.271       .  S
In245       O254   2.237       .  S
In245       O257   2.234       .  S
C246        O252   1.263       .  A
C246        O254   1.260       .  A
O247        C255   1.260       .  A
O248        C255   1.269       .  A
C249        O256   1.261       .  A
C249        O250   1.268       .  A
C249        C357   1.473       .  S
C251        O253   1.264       .  A
C251        O257   1.259       .  A
C255        C337   1.480       .  S
In258       O260   2.223       .  S
In258       O261   2.259       .  S
In258       O269   2.225       .  S
In258       O263   2.254       .  S
In258       O265   2.249       .  S
In258       O266   2.267       .  S
In258       O267   2.236       .  S
In258       O270   2.207       .  S
C259        O265   1.262       .  A
C259        O267   1.260       .  A
O260        C268   1.260       .  A
O261        C268   1.264       .  A
C262        O269   1.263       .  A
C262        O263   1.267       .  A
C262        C368   1.483       .  S
C264        O266   1.268       .  A
C264        O270   1.259       .  A
C264        C328   1.472       .  S
In271       O273   2.216       .  S
In271       O274   2.271       .  S
In271       O282   2.223       .  S
In271       O276   2.264       .  S
In271       O278   2.276       .  S
In271       O279   2.226       .  S
In271       O280   2.242       .  S
In271       O283   2.281       .  S
C272        O278   1.263       .  A
C272        O280   1.259       .  A
O273        C281   1.259       .  A
O274        C281   1.266       .  A
C275        O282   1.258       .  A
C275        O276   1.265       .  A
C275        C308   1.479       .  S
C277        O279   1.256       .  A
C277        O283   1.263       .  A
C281        C317   1.480       .  S
In284       O286   2.231       .  S
In284       O287   2.252       .  S
In284       O295   2.228       .  S
In284       O289   2.259       .  S
In284       O291   2.283       .  S
In284       O292   2.249       .  S
In284       O293   2.218       .  S
In284       O296   2.229       .  S
C285        O291   1.260       .  A
C285        O293   1.256       .  A
O286        C294   1.259       .  A
O287        C294   1.257       .  A
C288        O295   1.262       .  A
C288        O289   1.264       .  A
C288        C297   1.488       .  S
C290        O292   1.262       .  A
C290        O296   1.260       .  A
C290        C348   1.473       .  S
C297        C298   1.417       .  A
C297        C302   1.407       .  A
C298        C299   1.404       .  A
C298       Br314   1.920       .  S
C299        C300   1.402       .  A
C299        H303   1.083       .  S
C300        C304   1.480       .  S
C300        C301   1.407       .  A
C301        C302   1.396       .  A
C301       Br313   1.921       .  S
C302        H305   1.083       .  S
C304        C306   1.402       .  A
C304        C310   1.408       .  A
C306        C307   1.400       .  A
C306        H311   1.084       .  S
C307        C308   1.412       .  A
C307       Br315   1.921       .  S
C308        C309   1.406       .  A
C309        C310   1.401       .  A
C309        H312   1.083       .  S
C310       Br316   1.919       .  S
C317        C318   1.414       .  A
C317        C322   1.407       .  A
C318        C319   1.394       .  A
C318       Br334   1.923       .  S
C319        C320   1.398       .  A
C319        H323   1.084       .  S
C320        C324   1.476       .  S
C320        C321   1.406       .  A
C321        C322   1.405       .  A
C321       Br333   1.917       .  S
C322        H325   1.083       .  S
C324        C326   1.400       .  A
C324        C330   1.408       .  A
C326        C327   1.396       .  A
C326        H331   1.084       .  S
C327        C328   1.411       .  A
C327       Br335   1.923       .  S
C328        C329   1.403       .  A
C329        C330   1.403       .  A
C329        H332   1.083       .  S
C330       Br336   1.917       .  S
C337        C338   1.416       .  A
C337        C342   1.407       .  A
C338        C339   1.394       .  A
C338       Br354   1.923       .  S
C339        C340   1.399       .  A
C339        H343   1.084       .  S
C340        C344   1.477       .  S
C340        C341   1.407       .  A
C341        C342   1.403       .  A
C341       Br353   1.918       .  S
C342        H345   1.083       .  S
C344        C346   1.402       .  A
C344        C350   1.408       .  A
C346        C347   1.397       .  A
C346        H351   1.084       .  S
C347        C348   1.410       .  A
C347       Br355   1.921       .  S
C348        C349   1.405       .  A
C349        C350   1.399       .  A
C349        H352   1.084       .  S
C350       Br356   1.918       .  S
C357        C358   1.411       .  A
C357        C362   1.404       .  A
C358        C359   1.395       .  A
C358       Br374   1.923       .  S
C359        C360   1.400       .  A
C359        H363   1.084       .  S
C360        C364   1.477       .  S
C360        C361   1.409       .  A
C361        C362   1.402       .  A
C361       Br373   1.917       .  S
C362        H365   1.083       .  S
C364        C366   1.401       .  A
C364        C370   1.407       .  A
C366        C367   1.403       .  A
C366        H371   1.083       .  S
C367        C368   1.415       .  A
C367       Br375   1.919       .  S
C368        C369   1.406       .  A
C369        C370   1.396       .  A
C369        H372   1.084       .  S
C370       Br376   1.923       .  S
C377        C378   1.424       .  A
C377        C382   1.418       .  A
C378        C379   1.410   1_545  A
C378       Br394   1.921   1_545  S
C379        C380   1.404   1_565  A
C379        H383   1.083       .  S
C380        C384   1.492       .  S
C380        C381   1.402       .  A
C381        C382   1.397       .  A
C381       Br393   1.922       .  S
C382        H385   1.074       .  S
C384        C386   1.402       .  A
C384        C390   1.404       .  A
C386        C387   1.406       .  A
C386        H391   1.084   1_545  S
C387        C388   1.424       .  A
C387      Br1331   1.923   1_545  S
C388        C389   1.418       .  A
C389        C390   1.402       .  A
C389        H392   1.075       .  S
C390       Br396   1.919       .  S
Br395      C1323   1.923   1_565  S
C397        C398   1.430       .  A
C397        C402   1.418       .  A
C398        C399   1.404       .  A
C398       Br414   1.919       .  S
C399        C400   1.400       .  A
C399        H403   1.083       .  S
C400        C404   1.496       .  S
C400        C401   1.408       .  A
C401        C402   1.398       .  A
C401       Br413   1.924       .  S
C402        H405   1.077       .  S
C404        C406   1.402       .  A
C404        C410   1.412       .  A
C406       C1343   1.400   1_554  A
C406        H411   1.083       .  S
C407        C408   1.420       .  A
C407       C1342   1.400       .  A
C407       Br415   1.917       .  S
C408       C1345   1.412       .  A
C409        C410   1.400       .  A
C409       C1344   1.412   1_554  A
C409        H412   1.081       .  S
C410       Br416   1.922       .  S
C417        C418   1.424       .  A
C417        C422   1.416       .  A
C418        C419   1.406       .  A
C418       Br434   1.922       .  S
C419        C420   1.403       .  A
C419        H423   1.083       .  S
C420        C424   1.496       .  S
C420        C421   1.408       .  A
C421        C422   1.401       .  A
C421       Br433   1.922       .  S
C422        H425   1.077       .  S
C424        C426   1.404       .  A
C424        C430   1.409       .  A
C426        C427   1.406       .  A
C426        H431   1.083       .  S
C427        C428   1.421       .  A
C427       Br435   1.922       .  S
C428        C429   1.414       .  A
C429        C430   1.400       .  A
C429        H432   1.077       .  S
C430       Br436   1.918       .  S
C437        C438   1.406       .  A
C437        C442   1.399       .  A
C438        C439   1.399       .  A
C438       Br454   1.916       .  S
C439        C440   1.404       .  A
C439        H443   1.084       .  S
C440        C444   1.481       .  S
C440        C441   1.412       .  A
C441        C442   1.398       .  A
C441       Br453   1.920       .  S
C442        H445   1.084       .  S
C444        C446   1.400       .  A
C444        C450   1.412       .  A
C446        C447   1.395       .  A
C446        H451   1.084       .  S
C447       C1384   1.414       .  A
C447       Br455   1.923       .  S
C448        C449   1.402       .  A
C448       C1383   1.414       .  A
C449       C1386   1.401       .  A
C449        H452   1.084       .  S
C450       C1385   1.401       .  A
C450       Br456   1.919       .  S
C457        C458   1.424       .  A
C457        C462   1.415       .  A
C458        C459   1.399       .  A
C458       Br474   1.925       .  S
C459        C460   1.400       .  A
C459        H463   1.084       .  S
C460        C464   1.486       .  S
C460        C461   1.404   1_655  A
C461        C462   1.402   1_455  A
C461       Br473   1.919       .  S
C462        H465   1.075   1_655  S
C464        C466   1.400       .  A
C464        C470   1.405       .  A
C466        C467   1.403       .  A
C466        H471   1.083       .  S
C467        C468   1.424       .  A
C467       Br475   1.922   1_655  S
C468        C469   1.412       .  A
C469        C470   1.398       .  A
C469        H472   1.075       .  S
C470       Br476   1.920       .  S
C477        C478   1.413       .  A
C477        C482   1.404       .  A
C478        C479   1.398       .  A
C478       Br494   1.919       .  S
C479        C480   1.399       .  A
C479        H483   1.084       .  S
C480        C484   1.481       .  S
C480        C481   1.410       .  A
C481        C482   1.405       .  A
C481       Br493   1.918       .  S
C482        H485   1.084       .  S
C484        C486   1.401       .  A
C484        C490   1.407       .  A
C486        C487   1.401   1_554  A
C486        H491   1.083       .  S
C487       C1424   1.411       .  A
C487       Br495   1.913       .  S
C488       C1423   1.411       .  A
C488       C1425   1.406       .  A
C489        C490   1.401   1_556  A
C489       C1424   1.406       .  A
C489       H1428   1.084       .  S
C490       Br496   1.918       .  S
H492       C1425   1.084       .  S
C497       C1434   1.406       .  A
C497       C1438   1.403       .  A
C498        C499   1.402   1_556  A
C498       C1433   1.406       .  A
C498      Br1450   1.917       .  S
C499        C500   1.404       .  A
C499        H503   1.083       .  S
C500        C504   1.481       .  S
C500        C501   1.408       .  A
C501        C502   1.401       .  A
C501       Br513   1.918       .  S
C502       C1433   1.403   1_554  A
C502        H505   1.083       .  S
C504        C506   1.402       .  A
C504        C510   1.409       .  A
C506        C507   1.400       .  A
C506        H511   1.084       .  S
C507        C508   1.410       .  A
C507       Br515   1.919       .  S
C508        C509   1.403       .  A
C509        C510   1.402       .  A
C509        H512   1.084       .  S
C510       Br516   1.917       .  S
Br514      C1434   1.917       .  S
C517        C518   1.424       .  A
C517        C522   1.416       .  A
C518        C519   1.407       .  A
C518       Br534   1.922       .  S
C519        C520   1.403       .  A
C519        H523   1.083       .  S
C520        C524   1.486       .  S
C520        C521   1.402       .  A
C521        C522   1.396       .  A
C521       Br533   1.921       .  S
C522        H525   1.076       .  S
C524        C526   1.403       .  A
C524        C530   1.402       .  A
C526        C527   1.407       .  A
C526        H531   1.084       .  S
C527        C528   1.422       .  A
C527      Br1471   1.921       .  S
C528        C529   1.418       .  A
C529        C530   1.396       .  A
C529        H532   1.079       .  S
C530       Br536   1.921       .  S
Br535      C1463   1.921       .  S
C537        C538   1.416       .  A
C537        C542   1.408       .  A
C538        C539   1.395       .  A
C538       Br554   1.924       .  S
C539        C540   1.399       .  A
C539        H543   1.084       .  S
C540        C544   1.478       .  S
C540        C541   1.406       .  A
C541        C542   1.404       .  A
C541       Br553   1.916       .  S
C542        H545   1.083       .  S
C544        C546   1.403       .  A
C544        C550   1.406       .  A
C546        C547   1.402       .  A
C546        H551   1.083       .  S
C547        C548   1.411       .  A
C547       Br555   1.919       .  S
C548        C549   1.405       .  A
C549        C550   1.398       .  A
C549        H552   1.084       .  S
C550       Br556   1.918       .  S
C557        C558   1.411       .  A
C557        C562   1.405       .  A
C558        C559   1.397       .  A
C558       Br574   1.921       .  S
C559        C560   1.401       .  A
C559        H563   1.084       .  S
C560        C564   1.476       .  S
C560        C561   1.407       .  A
C561        C562   1.401       .  A
C561       Br573   1.917       .  S
C562        H565   1.083       .  S
C564        C566   1.403       .  A
C564        C570   1.405       .  A
C566        C567   1.405       .  A
C566        H571   1.083       .  S
C567        C568   1.414       .  A
C567       Br575   1.919       .  S
C568        C569   1.404       .  A
C569        C570   1.392       .  A
C569        H572   1.082       .  S
C570       Br576   1.921       .  S
C577        C578   1.416       .  A
C577        C582   1.408       .  A
C578        C579   1.405       .  A
C578       Br594   1.919       .  S
C579        C580   1.403       .  A
C579        H583   1.083       .  S
C580        C584   1.477       .  S
C580        C581   1.404       .  A
C581        C582   1.395       .  A
C581       Br593   1.920       .  S
C582        H585   1.083       .  S
C584        C586   1.402       .  A
C584        C590   1.406       .  A
C586        C587   1.403       .  A
C586        H591   1.083       .  S
C587        C588   1.413       .  A
C587       Br595   1.919       .  S
C588        C589   1.404       .  A
C589        C590   1.397       .  A
C589        H592   1.082       .  S
C590       Br596   1.919       .  S
C597        C598   1.410       .  A
C597        C602   1.402       .  A
C598        C599   1.400       .  A
C598       Br614   1.918       .  S
C599        C600   1.402       .  A
C599        H603   1.084       .  S
C600        C604   1.477       .  S
C600        C601   1.409       .  A
C601        C602   1.399       .  A
C601       Br613   1.919       .  S
C602        H605   1.084       .  S
C604        C606   1.398       .  A
C604        C610   1.405       .  A
C606        C607   1.395       .  A
C606        H611   1.084       .  S
C607        C608   1.418       .  A
C607       Br615   1.923       .  S
C608        C609   1.409       .  A
C609        C610   1.404       .  A
C609        H612   1.083       .  S
C610       Br616   1.916       .  S
C617        C618   1.410   1_455  A
C617        C622   1.404       .  A
C618        C619   1.399       .  A
C618       Br634   1.916       .  S
C619        C620   1.402       .  A
C619        H623   1.084       .  S
C620        C624   1.486       .  S
C620        C621   1.411       .  A
C621        C622   1.405   1_655  A
C621       Br633   1.918       .  S
C622        H625   1.083       .  S
C624        C626   1.403       .  A
C624        C630   1.409       .  A
C626        C627   1.402       .  A
C626        H631   1.083       .  S
C627        C628   1.414       .  A
C627       Br635   1.920       .  S
C628        C629   1.406       .  A
C629        C630   1.400       .  A
C629        H632   1.081       .  S
C630       Br636   1.919       .  S
C637        C638   1.413       .  A
C637        C642   1.404   1_655  A
C638        C639   1.403       .  A
C638       Br654   1.920       .  S
C639        C640   1.403       .  A
C639        H643   1.083       .  S
C640        C644   1.485       .  S
C640        C641   1.408       .  A
C641        C642   1.402   1_655  A
C641       Br653   1.917       .  S
C642        H645   1.083       .  S
C644        C646   1.398       .  A
C644        C650   1.406       .  A
C646        C647   1.402       .  A
C646        H651   1.084       .  S
C647        C648   1.421       .  A
C647       Br655   1.913   1_565  S
C648        C649   1.410       .  A
C649        C650   1.404       .  A
C649        H652   1.083       .  S
C650       Br656   1.917       .  S
C657        C658   1.423       .  A
C657        C662   1.415       .  A
C658        C659   1.406       .  A
C658       Br674   1.919       .  S
C659        C660   1.401       .  A
C659        H663   1.083       .  S
C660        C664   1.487       .  S
C660        C661   1.403       .  A
C661        C662   1.400       .  A
C661       Br673   1.917       .  S
C662        H665   1.077       .  S
C664        C666   1.397       .  A
C664        C670   1.405       .  A
C666        C667   1.398       .  A
C666        H671   1.084       .  S
C667        C668   1.424       .  A
C667       Br675   1.920       .  S
C668        C669   1.417       .  A
C669        C670   1.407       .  A
C669        H672   1.076   1_455  S
C670       Br676   1.917   1_455  S
C677       C1614   1.413       .  A
C677       C1618   1.405       .  A
C678        C679   1.400       .  A
C678       C1613   1.413   1_554  A
C678       Br694   1.921   1_554  S
C679        C680   1.405       .  A
C679        H683   1.083       .  S
C680        C684   1.494       .  S
C680        C681   1.414       .  A
C681        C682   1.401       .  A
C681       Br693   1.922       .  S
C682       C1613   1.405   1_554  A
C682       H1621   1.083   1_554  S
C684        C686   1.402       .  A
C684        C690   1.409       .  A
H685       C1618   1.083       .  S
C686        C687   1.401       .  A
C686        H691   1.083       .  S
C687        C688   1.423       .  A
C687       Br695   1.920       .  S
C688        C689   1.413       .  A
C689        C690   1.398       .  A
C689        H692   1.080       .  S
C690       Br696   1.922       .  S
C697        C698   1.411       .  A
C697        C702   1.401       .  A
C698        C699   1.396       .  A
C698       Br714   1.922       .  S
C699        C700   1.401       .  A
C699        H703   1.084       .  S
C700        C704   1.478       .  S
C700        C701   1.408       .  A
C701        C702   1.400       .  A
C701       Br713   1.917       .  S
C702        H705   1.083       .  S
C704        C706   1.402       .  A
C704        C710   1.408       .  A
C706        C707   1.399       .  A
C706        H711   1.084       .  S
C707        C708   1.409       .  A
C707       Br715   1.916       .  S
C708        C709   1.403       .  A
C709        C710   1.399       .  A
C709        H712   1.083   1_455  S
C710       Br716   1.919       .  S
C717        C718   1.413       .  A
C717        C722   1.406       .  A
C718        C719   1.404       .  A
C718       Br734   1.917       .  S
C719        C720   1.403       .  A
C719        H723   1.083       .  S
C720        C724   1.487       .  S
C720        C721   1.409       .  A
C721        C722   1.401       .  A
C721       Br733   1.919       .  S
C722        H725   1.083       .  S
C724        C726   1.400       .  A
C724        C730   1.408       .  A
C726        C727   1.401       .  A
C726        H731   1.084       .  S
C727        C728   1.415       .  A
C727       Br735   1.911       .  S
C728        C729   1.408       .  A
C729        C730   1.405       .  A
C729        H732   1.083       .  S
C730       Br736   1.917       .  S
C737        C738   1.420       .  A
C737        C742   1.415       .  A
C738        C739   1.406       .  A
C738       Br754   1.922       .  S
C739        C740   1.402       .  A
C739        H743   1.079       .  S
C740        C744   1.479       .  S
C740        C741   1.401       .  A
C741        C742   1.395       .  A
C741       Br753   1.921       .  S
C742        H745   1.072       .  S
C744        C746   1.396       .  A
C744        C750   1.404       .  A
C746        C747   1.393       .  A
C746        H751   1.083       .  S
C747        C748   1.423       .  A
C747       Br755   1.925       .  S
C748        C749   1.417       .  A
C749        C750   1.406       .  A
C749        H752   1.076       .  S
C750       Br756   1.917       .  S
C757        C758   1.413       .  A
C757        C762   1.403       .  A
C758        C759   1.399       .  A
C758       Br774   1.920       .  S
C759        C760   1.401       .  A
C759        H763   1.084       .  S
C760        C764   1.481       .  S
C760        C761   1.409       .  A
C761        C762   1.402       .  A
C761       Br773   1.916       .  S
C762        H765   1.083       .  S
C764        C766   1.402       .  A
C764        C770   1.408       .  A
C766        C767   1.402       .  A
C766        H771   1.083       .  S
C767       C1704   1.412       .  A
C767      Br1711   1.914       .  S
C768       C1703   1.412       .  A
C768       C1705   1.404       .  A
C769        C770   1.401       .  A
C769       C1704   1.404       .  A
C769       H1708   1.084       .  S
C770       Br776   1.918       .  S
H772       C1705   1.084       .  S
Br775      C1703   1.914       .  S
C777        C778   1.411       .  A
C777        C782   1.405       .  A
C778        C779   1.403       .  A
C778       Br794   1.915   1_455  S
C779        C780   1.403       .  A
C779        H783   1.083       .  S
C780        C784   1.479       .  S
C780        C781   1.407       .  A
C781        C782   1.396       .  A
C781       Br793   1.919       .  S
C782        H785   1.083       .  S
C784        C786   1.399       .  A
C784        C790   1.407       .  A
C786        C787   1.398   1_545  A
C786        H791   1.084       .  S
C787        C788   1.413       .  A
C787       Br795   1.913       .  S
C788        C789   1.409   1_565  A
C789        C790   1.403       .  A
C789        H792   1.083       .  S
C790       Br796   1.918       .  S
C797        C798   1.409   1_565  A
C797        C802   1.403   1_565  A
C798        C799   1.399       .  A
C798       Br814   1.919       .  S
C799        C800   1.404       .  A
C799        H803   1.084       .  S
C800        C804   1.492       .  S
C800        C801   1.414       .  A
C801        C802   1.406       .  A
C801       Br813   1.919       .  S
C802        H805   1.083   1_545  S
C804        C806   1.405       .  A
C804        C810   1.412       .  A
C806        C807   1.405       .  A
C806        H811   1.083       .  S
C807        C808   1.414       .  A
C807       Br815   1.920       .  S
C808        C809   1.403       .  A
C809        C810   1.401       .  A
C809        H812   1.084       .  S
C810       Br816   1.920       .  S
C817        C818   1.422       .  A
C817        C822   1.416       .  A
C818        C819   1.401       .  A
C818       Br834   1.923       .  S
C819        C820   1.401       .  A
C819        H823   1.084       .  S
C820        C824   1.487       .  S
C820        C821   1.406       .  A
C821        C822   1.401       .  A
C821       Br833   1.921       .  S
C822        H825   1.075       .  S
C824        C826   1.402       .  A
C824        C830   1.404       .  A
C826        C827   1.407       .  A
C826        H831   1.083   1_565  S
C827        C828   1.425       .  A
C827       Br835   1.921   1_565  S
C828        C829   1.415       .  A
C829        C830   1.395       .  A
C829        H832   1.073       .  S
C830       Br836   1.924       .  S
C837        C838   1.419       .  A
C837       C1778   1.410       .  A
C838       C1775   1.401       .  A
C838       Br854   1.914       .  S
C839        C840   1.400       .  A
C839       C1774   1.401   1_554  A
C839        H843   1.084       .  S
C840        C844   1.477       .  S
C840        C841   1.403       .  A
C841        C842   1.394   1_554  A
C841       Br853   1.919       .  S
C842       C1773   1.410       .  A
C842        H845   1.083       .  S
C844        C846   1.404       .  A
C844        C850   1.403       .  A
C846        C847   1.400       .  A
C846        H851   1.084       .  S
C847        C848   1.412       .  A
C847       Br855   1.917       .  S
C848        C849   1.411       .  A
C849        C850   1.395       .  A
C849        H852   1.083       .  S
C850       Br856   1.919       .  S
C857        C858   1.417       .  A
C857        C862   1.406       .  A
C858        C859   1.399       .  A
C858       Br874   1.923       .  S
C859        C860   1.403       .  A
C859        H863   1.084       .  S
C860        C864   1.492       .  S
C860        C861   1.412       .  A
C861        C862   1.404       .  A
C861       Br873   1.919       .  S
C862        H865   1.083       .  S
C864        C866   1.408       .  A
C864        C870   1.414       .  A
C866        C867   1.405       .  A
C866        H871   1.083       .  S
C867        C868   1.406       .  A
C867       Br875   1.917       .  S
C868        C869   1.399       .  A
C869        C870   1.398       .  A
C869        H872   1.084       .  S
C870       Br876   1.921       .  S
C877        C878   1.417       .  A
C877        C882   1.412       .  A
C878        C879   1.402       .  A
C878       Br894   1.909       .  S
C879        C880   1.399       .  A
C879        H883   1.084       .  S
C880        C884   1.479       .  S
C880        C881   1.402       .  A
C881        C882   1.399       .  A
C881       Br893   1.918       .  S
C882        H885   1.083       .  S
C884        C886   1.403       .  A
C884        C890   1.406       .  A
C886       C1823   1.401       .  A
C886        H891   1.083       .  S
C887        C888   1.410       .  A
C887       C1822   1.401       .  A
C887       Br895   1.916       .  S
C888       C1825   1.403       .  A
C889        C890   1.399       .  A
C889       C1824   1.403   1_554  A
C889        H892   1.084       .  S
C890       Br896   1.917       .  S
C897        C898   1.413       .  A
C897        C902   1.407       .  A
C898        C899   1.404       .  A
C898       Br914   1.919       .  S
C899        C900   1.403       .  A
C899        H903   1.083       .  S
C900        C904   1.486       .  S
C900        C901   1.407       .  A
C901        C902   1.404       .  A
C901       Br913   1.918       .  S
C902        H905   1.084   1_565  S
C904        C906   1.401       .  A
C904        C910   1.407       .  A
C906        C907   1.403       .  A
C906        H911   1.083       .  S
C907        C908   1.416       .  A
C907       Br915   1.920       .  S
C908        C909   1.408       .  A
C909        C910   1.404       .  A
C909        H912   1.083       .  S
C910       Br916   1.918       .  S
C917        C918   1.426       .  A
C917        C922   1.415       .  A
C918        C919   1.398       .  A
C918       Br934   1.923       .  S
C919        C920   1.397       .  A
C919        H923   1.083       .  S
C920        C924   1.493       .  S
C920        C921   1.408       .  A
C921        C922   1.409       .  A
C921       Br933   1.917       .  S
C922        H925   1.077       .  S
C924        C926   1.402       .  A
C924        C930   1.405       .  A
C926        C927   1.408       .  A
C926        H931   1.083       .  S
C927        C928   1.424       .  A
C927       Br935   1.922       .  S
C928        C929   1.417       .  A
C929        C930   1.400       .  A
C929        H932   1.073       .  S
C930       Br936   1.921       .  S
C937        C938   1.534       .  S
C937        C943   1.543       .  S
C937        C941   1.551       .  S
C937       C1853   1.548       .  S
C938        H945   1.087       .  S
C938        C939   1.363       .  D
C939        C940   1.537       .  S
C939       C1078   1.470       .  S
C940        C944   1.530       .  S
C940        C942   1.546       .  S
C940        H946   1.111       .  S
C941        H947   1.081       .  S
C941        C942   1.377       .  D
C942       C1844   1.498       .  S
C943        H948   1.086       .  S
C943        C944   1.364       .  D
C944       C1824   1.481       .  S
C949        C950   1.551       .  S
C949        C955   1.539       .  S
C949        C953   1.537       .  S
C949       C1864   1.554       .  S
C950        H957   1.079       .  S
C950        C951   1.371       .  D
C951        C952   1.536       .  S
C951       C1773   1.498       .  S
C952        C956   1.532       .  S
C952        C954   1.547       .  S
C952        H958   1.107       .  S
C953        H959   1.086       .  S
C953        C954   1.368       .  D
C954       C1804   1.480       .  S
C955        H960   1.087       .  S
C955        C956   1.365       .  D
C956       C1043   1.473       .  S
C961        C962   1.533       .  S
C961        C967   1.548       .  S
C961        C965   1.535       .  S
C961       C1753   1.544       .  S
C962        H969   1.087       .  S
C962        C963   1.362       .  D
C963        C964   1.547       .  S
C963       C1073   1.477       .  S
C964        C968   1.546       .  S
C964        C966   1.545       .  S
C964        H970   1.108       .  S
C965        H971   1.086   1_565  S
C965        C966   1.367       .  D
C966       C1733   1.486       .  S
C967        H972   1.080       .  S
C967        C968   1.370       .  D
C968       C1813   1.502       .  S
C973        C974   1.535       .  S
C973        C979   1.547       .  S
C973        C977   1.541       .  S
C973       C1764   1.547       .  S
C974        H981   1.087       .  S
C974        C975   1.361       .  D
C975        C976   1.541       .  S
C975       C1693   1.483       .  S
C976        C980   1.537       .  S
C976        C978   1.550       .  S
C976        H982   1.110       .  S
C977        H983   1.085   1_565  S
C977        C978   1.375       .  D
C978       C1724   1.492       .  S
C979        H984   1.081       .  S
C979        C980   1.363       .  D
C980       C1060   1.481       .  S
C985        C986   1.541       .  S
C985        C991   1.535       .  S
C985        C989   1.533       .  S
C985       C1673   1.542       .  S
C986        H993   1.079       .  S
C986        C987   1.364       .  D
C987        C988   1.547       .  S
C987       C1784   1.492       .  S
C988        C992   1.550       .  S
C988        C990   1.550       .  S
C988        H994   1.108       .  S
C989        H995   1.086       .  S
C989        C990   1.368       .  D
C990       C1664   1.497       .  S
C991        H996   1.087       .  S
C991        C992   1.368       .  D
C992       C1034   1.485       .  S
C997        C998   1.534       .  S
C997       C1003   1.540       .  S
C997       C1001   1.541       .  S
C997       C1684   1.539       .  S
C998       H1005   1.087       .  S
C998        C999   1.359       .  D
C999       C1000   1.530       .  S
C999       C1052   1.471       .  S
C1000      C1004   1.545       .  S
C1000      C1002   1.543       .  S
C1000      H1006   1.102       .  S
C1001      H1007   1.082       .  S
C1001      C1002   1.370       .  D
C1002      C1633   1.476       .  S
C1003      H1008   1.084       .  S
C1003      C1004   1.375       .  D
C1004      C1624   1.511       .  S
C1009      C1010   1.543       .  S
C1009      C1015   1.536       .  S
C1009      C1013   1.550       .  S
C1009      C1604   1.548       .  S
C1010      H1017   1.086   1_556  S
C1010      C1011   1.367       .  D
C1011      C1012   1.539       .  S
C1011      C1704   1.487   1_556  S
C1012      C1016   1.538       .  S
C1012      C1014   1.543       .  S
C1012      H1018   1.111       .  S
C1013      H1019   1.081   1_455  S
C1013      C1014   1.372       .  D
C1014      C1573   1.488   1_455  S
C1015      H1020   1.087       .  S
C1015      C1016   1.363       .  D
C1016      C1069   1.477       .  S
C1021      C1022   1.547       .  S
C1021      C1027   1.544       .  S
C1021      C1025   1.536       .  S
C1021      C1593   1.550       .  S
C1022      H1029   1.083       .  S
C1022      C1023   1.362       .  D
C1023      C1024   1.535       .  S
C1023      C1047   1.477       .  S
C1024      C1028   1.541       .  S
C1024      C1026   1.544       .  S
C1024      H1030   1.111       .  S
C1025      H1031   1.086   1_455  S
C1025      C1026   1.370       .  D
C1026      C1553   1.485       .  S
C1027      H1032   1.084       .  S
C1027      C1028   1.370       .  D
C1028      C1613   1.492       .  S
In1033     O1035   2.247       .  S
In1033     O1036   2.268       .  S
In1033     O1044   2.212       .  S
In1033     O1038   2.276       .  S
In1033     O1040   2.239       .  S
In1033     O1041   2.267       .  S
In1033     O1042   2.303       .  S
In1033     O1045   2.229       .  S
C1034      O1040   1.257       .  A
C1034      O1042   1.261       .  A
O1035      C1043   1.256       .  A
O1036      C1043   1.261       .  A
C1037      O1044   1.260       .  A
C1037      O1038   1.268       .  A
C1037      C1513   1.487       .  S
C1039      O1041   1.264       .  A
C1039      O1045   1.257       .  A
C1039      C1533   1.472       .  S
In1046     O1048   2.227       .  S
In1046     O1049   2.259       .  S
In1046     O1057   2.211       .  S
In1046     O1051   2.263       .  S
In1046     O1053   2.279       .  S
In1046     O1054   2.258       .  S
In1046     O1055   2.240       .  S
In1046     O1058   2.242       .  S
C1047      O1053   1.262       .  A
C1047      O1055   1.258       .  A
O1048      C1056   1.261       .  A
O1049      C1056   1.264       .  A
C1050      O1057   1.260       .  A
C1050      O1051   1.268       .  A
C1050      C1544   1.486       .  S
C1052      O1054   1.261       .  A
C1052      O1058   1.259       .  A
C1056      C1493   1.475       .  S
In1059     O1061   2.243       .  S
In1059     O1062   2.272       .  S
In1059     O1070   2.213       .  S
In1059     O1064   2.262       .  S
In1059     O1066   2.282       .  S
In1059     O1067   2.268       .  S
In1059     O1068   2.237       .  S
In1059     O1071   2.214       .  S
C1060      O1066   1.262       .  A
C1060      O1068   1.260       .  A
O1061      C1069   1.260       .  A
O1062      C1069   1.262       .  A
C1063      O1070   1.261       .  A
C1063      O1064   1.266       .  A
C1063      C1504   1.480       .  S
C1065      O1067   1.267       .  A
C1065      O1071   1.259       .  A
C1065      C1473   1.482       .  S
In1072     O1074   2.236       .  S
In1072     O1075   2.266       .  S
In1072     O1083   2.259       .  S
In1072     O1077   2.231       .  S
In1072     O1079   2.263       .  S
In1072     O1080   2.259       .  S
In1072     O1081   2.253       .  S
In1072     O1084   2.243       .  S
C1073      O1079   1.257       .  A
C1073      O1081   1.258       .  A
O1074      C1082   1.259       .  A
O1075      C1082   1.264       .  A
C1076      O1083   1.265       .  A
C1076      O1077   1.261       .  A
C1076      C1524   1.479       .  S
C1078      O1080   1.261       .  A
C1078      O1084   1.259       .  A
C1082      C1484   1.478       .  S
C1085      C1086   1.544       .  S
C1085      C1091   1.542       .  S
C1085      C1089   1.542       .  S
C1085      C1464   1.551       .  S
C1086      H1093   1.086       .  S
C1086      C1087   1.366       .  D
C1087      C1088   1.536       .  S
C1087      C1433   1.479       .  S
C1088      C1092   1.532       .  S
C1088      C1090   1.543       .  S
C1088      H1094   1.111       .  S
C1089      H1095   1.085       .  S
C1089      C1090   1.375       .  D
C1090      C1564   1.493       .  S
C1091      H1096   1.083       .  S
C1091      C1092   1.358       .  D
C1092      C1221   1.471       .  S
C1097      C1098   1.532       .  S
C1097      C1103   1.550       .  S
C1097      C1101   1.537       .  S
C1097      C1453   1.548       .  S
C1098      H1105   1.086       .  S
C1098      C1099   1.366       .  D
C1099      C1100   1.540       .  S
C1099      C1182   1.475       .  S
C1100      C1104   1.536       .  S
C1100      C1102   1.552       .  S
C1100      H1106   1.110       .  S
C1101      H1107   1.083       .  S
C1101      C1102   1.373       .  D
C1102      C1793   1.495       .  S
C1103      H1108   1.082       .  S
C1103      C1104   1.361       .  D
C1104      C1424   1.487       .  S
C1109      C1110   1.552       .  S
C1109      C1115   1.530       .  S
C1109      C1113   1.541   1_655  S
C1109      C1404   1.543       .  S
C1110      H1117   1.080       .  S
C1110      C1111   1.365       .  D
C1111      C1112   1.534       .  S
C1111      C1444   1.481       .  S
C1112      C1116   1.532       .  S
C1112      C1114   1.539       .  S
C1112      H1118   1.111       .  S
C1113      H1119   1.086       .  S
C1113      C1114   1.374   1_455  D
C1114      C1644   1.480   1_655  S
C1115      H1120   1.088       .  S
C1115      C1116   1.356       .  D
C1116      C1230   1.460       .  S
C1121      C1122   1.536       .  S
C1121      C1127   1.537       .  S
C1121      C1125   1.549       .  S
C1121      C1393   1.543       .  S
C1122      H1129   1.087       .  S
C1122      C1123   1.365       .  D
C1123      C1124   1.536       .  S
C1123      C1213   1.476       .  S
C1124      C1128   1.536       .  S
C1124      C1126   1.541       .  S
C1124      H1130   1.111       .  S
C1125      H1131   1.080   1_655  S
C1125      C1126   1.370       .  D
C1126      C1713   1.487   1_655  S
C1127      H1132   1.086       .  S
C1127      C1128   1.364       .  D
C1128      C1373   1.472       .  S
C1133      C1134   1.533       .  S
C1133      C1139   1.548       .  S
C1133      C1137   1.543       .  S
C1133      C1353   1.550       .  S
C1134      H1141   1.087       .  S
C1134      C1135   1.363       .  D
C1135      C1136   1.538       .  S
C1135      C1187   1.475       .  S
C1136      C1140   1.539       .  S
C1136      C1138   1.548       .  S
C1136      H1142   1.111       .  S
C1137      H1143   1.085       .  S
C1137      C1138   1.373       .  D
C1138      C1653   1.492       .  S
C1139      H1144   1.082       .  S
C1139      C1140   1.366       .  D
C1140      C1413   1.487       .  S
C1145      C1146   1.541       .  S
C1145      C1151   1.539       .  S
C1145      C1149   1.535       .  S
C1145      C1364   1.549       .  S
C1146      H1153   1.081       .  S
C1146      C1147   1.381       .  D
C1147      C1148   1.552       .  S
C1147      C1333   1.526       .  S
C1148      C1152   1.537       .  S
C1148      C1150   1.542       .  S
C1148      H1154   1.094       .  S
C1149      H1155   1.086       .  S
C1149      C1150   1.368       .  D
C1150      C1744   1.492       .  S
C1151      H1156   1.083       .  S
C1151      C1152   1.361       .  D
C1152      C1204   1.470       .  S
C1157      C1158   1.530       .  S
C1157      C1163   1.546       .  S
C1157      C1161   1.545   1_545  S
C1157      C1313   1.552       .  S
C1158      H1165   1.086       .  S
C1158      C1159   1.362       .  D
C1159      C1160   1.541       .  S
C1159      C1208   1.479       .  S
C1160      C1164   1.536       .  S
C1160      C1162   1.552       .  S
C1160      H1166   1.109       .  S
C1161      H1167   1.085       .  S
C1161      C1162   1.379   1_565  D
C1162      C1584   1.505   1_545  S
C1163      H1168   1.081   1_556  S
C1163      C1164   1.360       .  D
C1164      C1384   1.481   1_556  S
C1169      C1170   1.542       .  S
C1169      C1175   1.542       .  S
C1169      C1173   1.542       .  S
C1169      C1324   1.553       .  S
C1170      H1177   1.085       .  S
C1170      C1171   1.374       .  D
C1171      C1172   1.544       .  S
C1171      C1344   1.508       .  S
C1172      C1176   1.538       .  S
C1172      C1174   1.540       .  S
C1172      H1178   1.103       .  S
C1173      H1179   1.085   1_545  S
C1173      C1174   1.371       .  D
C1174      C1833   1.494   1_545  S
C1175      H1180   1.081       .  S
C1175      C1176   1.362       .  D
C1176      C1195   1.472       .  S
In1181     O1183   2.212       .  S
In1181     O1184   2.265       .  S
In1181     O1192   2.206       .  S
In1181     O1186   2.262       .  S
In1181     O1188   2.264       .  S
In1181     O1189   2.271       .  S
In1181     O1190   2.237       .  S
In1181     O1193   2.234       .  S
C1182      O1188   1.263       .  A
C1182      O1190   1.260       .  A
O1183      C1191   1.260       .  A
O1184      C1191   1.269       .  A
C1185      O1192   1.261       .  A
C1185      O1186   1.268       .  A
C1185      C1293   1.473       .  S
C1187      O1189   1.264       .  A
C1187      O1193   1.259       .  A
C1191      C1273   1.480       .  S
In1194     O1196   2.223       .  S
In1194     O1197   2.259       .  S
In1194     O1205   2.225       .  S
In1194     O1199   2.253       .  S
In1194     O1201   2.248       .  S
In1194     O1202   2.267       .  S
In1194     O1203   2.236       .  S
In1194     O1206   2.207       .  S
C1195      O1201   1.262       .  A
C1195      O1203   1.260       .  A
O1196      C1204   1.260       .  A
O1197      C1204   1.264       .  A
C1198      O1205   1.263       .  A
C1198      O1199   1.267       .  A
C1198      C1304   1.483       .  S
C1200      O1202   1.268       .  A
C1200      O1206   1.259       .  A
C1200      C1264   1.472       .  S
In1207     O1209   2.216       .  S
In1207     O1210   2.271       .  S
In1207     O1218   2.223       .  S
In1207     O1212   2.264       .  S
In1207     O1214   2.276       .  S
In1207     O1215   2.226       .  S
In1207     O1216   2.242       .  S
In1207     O1219   2.281       .  S
C1208      O1214   1.263       .  A
C1208      O1216   1.259       .  A
O1209      C1217   1.259       .  A
O1210      C1217   1.266       .  A
C1211      O1218   1.258       .  A
C1211      O1212   1.265       .  A
C1211      C1244   1.479       .  S
C1213      O1215   1.256       .  A
C1213      O1219   1.263       .  A
C1217      C1253   1.480       .  S
In1220     O1222   2.231       .  S
In1220     O1223   2.252       .  S
In1220     O1231   2.228       .  S
In1220     O1225   2.259       .  S
In1220     O1227   2.283       .  S
In1220     O1228   2.249       .  S
In1220     O1229   2.217       .  S
In1220     O1232   2.229       .  S
C1221      O1227   1.260       .  A
C1221      O1229   1.256       .  A
O1222      C1230   1.259       .  A
O1223      C1230   1.257       .  A
C1224      O1231   1.262       .  A
C1224      O1225   1.264       .  A
C1224      C1233   1.488       .  S
C1226      O1228   1.262       .  A
C1226      O1232   1.260       .  A
C1226      C1284   1.473       .  S
C1233      C1234   1.417       .  A
C1233      C1238   1.407       .  A
C1234      C1235   1.404       .  A
C1234     Br1250   1.920       .  S
C1235      C1236   1.402       .  A
C1235      H1239   1.083       .  S
C1236      C1240   1.480       .  S
C1236      C1237   1.407       .  A
C1237      C1238   1.396       .  A
C1237     Br1249   1.921       .  S
C1238      H1241   1.083       .  S
C1240      C1242   1.402       .  A
C1240      C1246   1.408       .  A
C1242      C1243   1.400       .  A
C1242      H1247   1.084       .  S
C1243      C1244   1.412       .  A
C1243     Br1251   1.921       .  S
C1244      C1245   1.406       .  A
C1245      C1246   1.401       .  A
C1245      H1248   1.083       .  S
C1246     Br1252   1.919       .  S
C1253      C1254   1.414       .  A
C1253      C1258   1.407       .  A
C1254      C1255   1.394       .  A
C1254     Br1270   1.923       .  S
C1255      C1256   1.398       .  A
C1255      H1259   1.084       .  S
C1256      C1260   1.476       .  S
C1256      C1257   1.406       .  A
C1257      C1258   1.405       .  A
C1257     Br1269   1.917       .  S
C1258      H1261   1.083       .  S
C1260      C1262   1.400       .  A
C1260      C1266   1.408       .  A
C1262      C1263   1.396       .  A
C1262      H1267   1.084       .  S
C1263      C1264   1.411       .  A
C1263     Br1271   1.923       .  S
C1264      C1265   1.403       .  A
C1265      C1266   1.403       .  A
C1265      H1268   1.083       .  S
C1266     Br1272   1.917       .  S
C1273      C1274   1.416       .  A
C1273      C1278   1.407       .  A
C1274      C1275   1.394       .  A
C1274     Br1290   1.923       .  S
C1275      C1276   1.399       .  A
C1275      H1279   1.084       .  S
C1276      C1280   1.477       .  S
C1276      C1277   1.407       .  A
C1277      C1278   1.403       .  A
C1277     Br1289   1.918       .  S
C1278      H1281   1.083       .  S
C1280      C1282   1.402       .  A
C1280      C1286   1.408       .  A
C1282      C1283   1.397       .  A
C1282      H1287   1.084       .  S
C1283      C1284   1.410       .  A
C1283     Br1291   1.921       .  S
C1284      C1285   1.405       .  A
C1285      C1286   1.399       .  A
C1285      H1288   1.084       .  S
C1286     Br1292   1.918       .  S
C1293      C1294   1.411       .  A
C1293      C1298   1.404       .  A
C1294      C1295   1.395       .  A
C1294     Br1310   1.923       .  S
C1295      C1296   1.400       .  A
C1295      H1299   1.084       .  S
C1296      C1300   1.477       .  S
C1296      C1297   1.409       .  A
C1297      C1298   1.402       .  A
C1297     Br1309   1.917       .  S
C1298      H1301   1.083       .  S
C1300      C1302   1.401       .  A
C1300      C1306   1.407       .  A
C1302      C1303   1.403       .  A
C1302      H1307   1.083       .  S
C1303      C1304   1.415       .  A
C1303     Br1311   1.919       .  S
C1304      C1305   1.406       .  A
C1305      C1306   1.396       .  A
C1305      H1308   1.084       .  S
C1306     Br1312   1.923       .  S
C1313      C1314   1.424       .  A
C1313      C1318   1.418       .  A
C1314      C1315   1.410   1_545  A
C1314     Br1330   1.921   1_545  S
C1315      C1316   1.404   1_565  A
C1315      H1319   1.083       .  S
C1316      C1320   1.492       .  S
C1316      C1317   1.402       .  A
C1317      C1318   1.397       .  A
C1317     Br1329   1.922       .  S
C1318      H1321   1.074       .  S
C1320      C1322   1.402       .  A
C1320      C1326   1.404       .  A
C1322      C1323   1.406       .  A
C1322      H1327   1.084   1_545  S
C1323      C1324   1.424       .  A
C1324      C1325   1.418       .  A
C1325      C1326   1.402       .  A
C1325      H1328   1.075       .  S
C1326     Br1332   1.919       .  S
C1333      C1334   1.430       .  A
C1333      C1338   1.418       .  A
C1334      C1335   1.404       .  A
C1334     Br1350   1.919       .  S
C1335      C1336   1.400       .  A
C1335      H1339   1.083       .  S
C1336      C1340   1.496       .  S
C1336      C1337   1.408       .  A
C1337      C1338   1.398       .  A
C1337     Br1349   1.924       .  S
C1338      H1341   1.077       .  S
C1340      C1342   1.402       .  A
C1340      C1346   1.412       .  A
C1342      H1347   1.083       .  S
C1343      C1344   1.420       .  A
C1343     Br1351   1.917       .  S
C1345      C1346   1.400       .  A
C1345      H1348   1.081       .  S
C1346     Br1352   1.922       .  S
C1353      C1354   1.424       .  A
C1353      C1358   1.416       .  A
C1354      C1355   1.406       .  A
C1354     Br1370   1.922       .  S
C1355      C1356   1.403       .  A
C1355      H1359   1.083       .  S
C1356      C1360   1.496       .  S
C1356      C1357   1.408       .  A
C1357      C1358   1.401       .  A
C1357     Br1369   1.922       .  S
C1358      H1361   1.077       .  S
C1360      C1362   1.404       .  A
C1360      C1366   1.409       .  A
C1362      C1363   1.406       .  A
C1362      H1367   1.083       .  S
C1363      C1364   1.421       .  A
C1363     Br1371   1.922       .  S
C1364      C1365   1.414       .  A
C1365      C1366   1.400       .  A
C1365      H1368   1.077       .  S
C1366     Br1372   1.918       .  S
C1373      C1374   1.406       .  A
C1373      C1378   1.399       .  A
C1374      C1375   1.399       .  A
C1374     Br1390   1.916       .  S
C1375      C1376   1.404       .  A
C1375      H1379   1.084       .  S
C1376      C1380   1.481       .  S
C1376      C1377   1.412       .  A
C1377      C1378   1.398       .  A
C1377     Br1389   1.920       .  S
C1378      H1381   1.084       .  S
C1380      C1382   1.400       .  A
C1380      C1386   1.412       .  A
C1382      C1383   1.395       .  A
C1382      H1387   1.084       .  S
C1383     Br1391   1.923       .  S
C1384      C1385   1.402       .  A
C1385      H1388   1.084   1_554  S
C1386     Br1392   1.919       .  S
C1393      C1394   1.424       .  A
C1393      C1398   1.415       .  A
C1394      C1395   1.399       .  A
C1394     Br1410   1.925       .  S
C1395      C1396   1.400       .  A
C1395      H1399   1.084       .  S
C1396      C1400   1.486       .  S
C1396      C1397   1.404   1_655  A
C1397      C1398   1.402   1_455  A
C1397     Br1409   1.919       .  S
C1398      H1401   1.075   1_655  S
C1400      C1402   1.400       .  A
C1400      C1406   1.405       .  A
C1402      C1403   1.403       .  A
C1402      H1407   1.083       .  S
C1403      C1404   1.424       .  A
C1403     Br1411   1.922   1_655  S
C1404      C1405   1.412       .  A
C1405      C1406   1.398       .  A
C1405      H1408   1.075       .  S
C1406     Br1412   1.920       .  S
C1413      C1414   1.413       .  A
C1413      C1418   1.404       .  A
C1414      C1415   1.399       .  A
C1414     Br1430   1.919       .  S
C1415      C1416   1.399       .  A
C1415      H1419   1.084       .  S
C1416      C1420   1.481       .  S
C1416      C1417   1.410       .  A
C1417      C1418   1.405       .  A
C1417     Br1429   1.918       .  S
C1418      H1421   1.084       .  S
C1420      C1422   1.401       .  A
C1420      C1426   1.407       .  A
C1422      C1423   1.401       .  A
C1422      H1427   1.083       .  S
C1423     Br1431   1.913       .  S
C1425      C1426   1.401       .  A
C1426     Br1432   1.918       .  S
C1434      C1435   1.402       .  A
C1435      C1436   1.404       .  A
C1435      H1439   1.083       .  S
C1436      C1440   1.481       .  S
C1436      C1437   1.408       .  A
C1437      C1438   1.401       .  A
C1437     Br1449   1.918       .  S
C1438      H1441   1.083       .  S
C1440      C1442   1.402       .  A
C1440      C1446   1.409       .  A
C1442      C1443   1.400       .  A
C1442      H1447   1.084       .  S
C1443      C1444   1.410       .  A
C1443     Br1451   1.919       .  S
C1444      C1445   1.403       .  A
C1445      C1446   1.402       .  A
C1445      H1448   1.084       .  S
C1446     Br1452   1.917       .  S
C1453      C1454   1.424       .  A
C1453      C1458   1.416       .  A
C1454      C1455   1.407       .  A
C1454     Br1470   1.922       .  S
C1455      C1456   1.403       .  A
C1455      H1459   1.083       .  S
C1456      C1460   1.486       .  S
C1456      C1457   1.402       .  A
C1457      C1458   1.396       .  A
C1457     Br1469   1.921       .  S
C1458      H1461   1.076       .  S
C1460      C1462   1.403       .  A
C1460      C1466   1.402       .  A
C1462      C1463   1.407       .  A
C1462      H1467   1.084       .  S
C1463      C1464   1.422       .  A
C1464      C1465   1.418       .  A
C1465      C1466   1.396       .  A
C1465      H1468   1.078       .  S
C1466     Br1472   1.921       .  S
C1473      C1474   1.416       .  A
C1473      C1478   1.408       .  A
C1474      C1475   1.395       .  A
C1474     Br1490   1.924       .  S
C1475      C1476   1.399       .  A
C1475      H1479   1.084       .  S
C1476      C1480   1.478       .  S
C1476      C1477   1.406       .  A
C1477      C1478   1.404       .  A
C1477     Br1489   1.916       .  S
C1478      H1481   1.083       .  S
C1480      C1482   1.403       .  A
C1480      C1486   1.406       .  A
C1482      C1483   1.402       .  A
C1482      H1487   1.083       .  S
C1483      C1484   1.411       .  A
C1483     Br1491   1.919       .  S
C1484      C1485   1.405       .  A
C1485      C1486   1.398       .  A
C1485      H1488   1.084       .  S
C1486     Br1492   1.918       .  S
C1493      C1494   1.411       .  A
C1493      C1498   1.405       .  A
C1494      C1495   1.397       .  A
C1494     Br1510   1.921       .  S
C1495      C1496   1.401       .  A
C1495      H1499   1.084       .  S
C1496      C1500   1.476       .  S
C1496      C1497   1.407       .  A
C1497      C1498   1.401       .  A
C1497     Br1509   1.917       .  S
C1498      H1501   1.083       .  S
C1500      C1502   1.403       .  A
C1500      C1506   1.405       .  A
C1502      C1503   1.405       .  A
C1502      H1507   1.083       .  S
C1503      C1504   1.414       .  A
C1503     Br1511   1.919       .  S
C1504      C1505   1.404       .  A
C1505      C1506   1.392       .  A
C1505      H1508   1.082       .  S
C1506     Br1512   1.921       .  S
C1513      C1514   1.416       .  A
C1513      C1518   1.408       .  A
C1514      C1515   1.405       .  A
C1514     Br1530   1.919       .  S
C1515      C1516   1.403       .  A
C1515      H1519   1.083       .  S
C1516      C1520   1.477       .  S
C1516      C1517   1.404       .  A
C1517      C1518   1.395       .  A
C1517     Br1529   1.920       .  S
C1518      H1521   1.083       .  S
C1520      C1522   1.402       .  A
C1520      C1526   1.406       .  A
C1522      C1523   1.403       .  A
C1522      H1527   1.083       .  S
C1523      C1524   1.413       .  A
C1523     Br1531   1.919       .  S
C1524      C1525   1.404       .  A
C1525      C1526   1.397       .  A
C1525      H1528   1.082       .  S
C1526     Br1532   1.919       .  S
C1533      C1534   1.410       .  A
C1533      C1538   1.402       .  A
C1534      C1535   1.400       .  A
C1534     Br1550   1.919       .  S
C1535      C1536   1.402       .  A
C1535      H1539   1.084       .  S
C1536      C1540   1.478       .  S
C1536      C1537   1.409       .  A
C1537      C1538   1.399       .  A
C1537     Br1549   1.918       .  S
C1538      H1541   1.084       .  S
C1540      C1542   1.398       .  A
C1540      C1546   1.405       .  A
C1542      C1543   1.395       .  A
C1542      H1547   1.084       .  S
C1543      C1544   1.418       .  A
C1543     Br1551   1.923       .  S
C1544      C1545   1.409       .  A
C1545      C1546   1.404       .  A
C1545      H1548   1.083       .  S
C1546     Br1552   1.916       .  S
C1553      C1554   1.410   1_455  A
C1553      C1558   1.404       .  A
C1554      C1555   1.399       .  A
C1554     Br1570   1.916       .  S
C1555      C1556   1.402       .  A
C1555      H1559   1.084       .  S
C1556      C1560   1.486       .  S
C1556      C1557   1.411       .  A
C1557      C1558   1.405   1_655  A
C1557     Br1569   1.918       .  S
C1558      H1561   1.083       .  S
C1560      C1562   1.403       .  A
C1560      C1566   1.409       .  A
C1562      C1563   1.402       .  A
C1562      H1567   1.083       .  S
C1563      C1564   1.414       .  A
C1563     Br1571   1.920       .  S
C1564      C1565   1.406       .  A
C1565      C1566   1.400       .  A
C1565      H1568   1.081       .  S
C1566     Br1572   1.919       .  S
C1573      C1574   1.413       .  A
C1573      C1578   1.404   1_655  A
C1574      C1575   1.403       .  A
C1574     Br1590   1.920   1_556  S
C1575      C1576   1.403       .  A
C1575      H1579   1.083       .  S
C1576      C1580   1.485       .  S
C1576      C1577   1.408       .  A
C1577      C1578   1.402   1_655  A
C1577     Br1589   1.917       .  S
C1578      H1581   1.083       .  S
C1580      C1582   1.398       .  A
C1580      C1586   1.406       .  A
C1582      C1583   1.402       .  A
C1582      H1587   1.084       .  S
C1583      C1584   1.421       .  A
C1583     Br1591   1.913   1_566  S
C1584      C1585   1.410       .  A
C1585      C1586   1.404       .  A
C1585      H1588   1.083       .  S
C1586     Br1592   1.917       .  S
C1593      C1594   1.423       .  A
C1593      C1598   1.415       .  A
C1594      C1595   1.406       .  A
C1594     Br1610   1.919       .  S
C1595      C1596   1.401       .  A
C1595      H1599   1.083       .  S
C1596      C1600   1.487       .  S
C1596      C1597   1.403       .  A
C1597      C1598   1.400       .  A
C1597     Br1609   1.917       .  S
C1598      H1601   1.077       .  S
C1600      C1602   1.397       .  A
C1600      C1606   1.405       .  A
C1602      C1603   1.398       .  A
C1602      H1607   1.084       .  S
C1603      C1604   1.424       .  A
C1603     Br1611   1.920       .  S
C1604      C1605   1.417       .  A
C1605      C1606   1.407       .  A
C1605      H1608   1.076   1_455  S
C1606     Br1612   1.917   1_455  S
C1614      C1615   1.400       .  A
C1614     Br1630   1.921       .  S
C1615      C1616   1.405       .  A
C1615      H1619   1.083       .  S
C1616      C1620   1.494       .  S
C1616      C1617   1.415       .  A
C1617      C1618   1.401       .  A
C1617     Br1629   1.922       .  S
C1620      C1622   1.402       .  A
C1620      C1626   1.409       .  A
C1622      C1623   1.401       .  A
C1622      H1627   1.083       .  S
C1623      C1624   1.423       .  A
C1623     Br1631   1.920       .  S
C1624      C1625   1.413       .  A
C1625      C1626   1.399       .  A
C1625      H1628   1.080       .  S
C1626     Br1632   1.922       .  S
C1633      C1634   1.411       .  A
C1633      C1638   1.401       .  A
C1634      C1635   1.396       .  A
C1634     Br1650   1.922       .  S
C1635      C1636   1.401       .  A
C1635      H1639   1.084       .  S
C1636      C1640   1.478       .  S
C1636      C1637   1.408       .  A
C1637      C1638   1.400       .  A
C1637     Br1649   1.917       .  S
C1638      H1641   1.083       .  S
C1640      C1642   1.402       .  A
C1640      C1646   1.408       .  A
C1642      C1643   1.399       .  A
C1642      H1647   1.084       .  S
C1643      C1644   1.409       .  A
C1643     Br1651   1.916       .  S
C1644      C1645   1.403       .  A
C1645      C1646   1.399       .  A
C1645      H1648   1.083   1_455  S
C1646     Br1652   1.919       .  S
C1653      C1654   1.413       .  A
C1653      C1658   1.406       .  A
C1654      C1655   1.404       .  A
C1654     Br1670   1.917       .  S
C1655      C1656   1.403       .  A
C1655      H1659   1.083       .  S
C1656      C1660   1.487       .  S
C1656      C1657   1.409       .  A
C1657      C1658   1.401       .  A
C1657     Br1669   1.919       .  S
C1658      H1661   1.083       .  S
C1660      C1662   1.400       .  A
C1660      C1666   1.408       .  A
C1662      C1663   1.401       .  A
C1662      H1667   1.084       .  S
C1663      C1664   1.415       .  A
C1663     Br1671   1.911       .  S
C1664      C1665   1.408       .  A
C1665      C1666   1.405       .  A
C1665      H1668   1.083       .  S
C1666     Br1672   1.917       .  S
C1673      C1674   1.420       .  A
C1673      C1678   1.415       .  A
C1674      C1675   1.406       .  A
C1674     Br1690   1.922       .  S
C1675      C1676   1.402       .  A
C1675      H1679   1.079       .  S
C1676      C1680   1.479       .  S
C1676      C1677   1.401       .  A
C1677      C1678   1.395       .  A
C1677     Br1689   1.921       .  S
C1678      H1681   1.072       .  S
C1680      C1682   1.396       .  A
C1680      C1686   1.404       .  A
C1682      C1683   1.393       .  A
C1682      H1687   1.083       .  S
C1683      C1684   1.422       .  A
C1683     Br1691   1.925       .  S
C1684      C1685   1.417       .  A
C1685      C1686   1.406       .  A
C1685      H1688   1.076       .  S
C1686     Br1692   1.917       .  S
C1693      C1694   1.413       .  A
C1693      C1698   1.403       .  A
C1694      C1695   1.399       .  A
C1694     Br1710   1.920       .  S
C1695      C1696   1.402       .  A
C1695      H1699   1.084       .  S
C1696      C1700   1.482       .  S
C1696      C1697   1.409       .  A
C1697      C1698   1.402       .  A
C1697     Br1709   1.916       .  S
C1698      H1701   1.083       .  S
C1700      C1702   1.402       .  A
C1700      C1706   1.408       .  A
C1702      C1703   1.402       .  A
C1702      H1707   1.083       .  S
C1705      C1706   1.401       .  A
C1706     Br1712   1.918       .  S
C1713      C1714   1.411       .  A
C1713      C1718   1.405       .  A
C1714      C1715   1.403       .  A
C1714     Br1730   1.915   1_455  S
C1715      C1716   1.403       .  A
C1715      H1719   1.083       .  S
C1716      C1720   1.479       .  S
C1716      C1717   1.407       .  A
C1717      C1718   1.396       .  A
C1717     Br1729   1.919       .  S
C1718      H1721   1.083       .  S
C1720      C1722   1.399       .  A
C1720      C1726   1.407       .  A
C1722      C1723   1.398   1_545  A
C1722      H1727   1.084       .  S
C1723      C1724   1.413       .  A
C1723     Br1731   1.913       .  S
C1724      C1725   1.409   1_565  A
C1725      C1726   1.403       .  A
C1725      H1728   1.083       .  S
C1726     Br1732   1.918       .  S
C1733      C1734   1.409   1_565  A
C1733      C1738   1.404   1_565  A
C1734      C1735   1.399       .  A
C1734     Br1750   1.919       .  S
C1735      C1736   1.404       .  A
C1735      H1739   1.084       .  S
C1736      C1740   1.492       .  S
C1736      C1737   1.414       .  A
C1737      C1738   1.406       .  A
C1737     Br1749   1.919       .  S
C1738      H1741   1.083   1_545  S
C1740      C1742   1.405       .  A
C1740      C1746   1.412       .  A
C1742      C1743   1.405       .  A
C1742      H1747   1.083       .  S
C1743      C1744   1.414       .  A
C1743     Br1751   1.920       .  S
C1744      C1745   1.403       .  A
C1745      C1746   1.401       .  A
C1745      H1748   1.084       .  S
C1746     Br1752   1.920       .  S
C1753      C1754   1.422       .  A
C1753      C1758   1.416       .  A
C1754      C1755   1.401       .  A
C1754     Br1770   1.923       .  S
C1755      C1756   1.401       .  A
C1755      H1759   1.084       .  S
C1756      C1760   1.487       .  S
C1756      C1757   1.406       .  A
C1757      C1758   1.401       .  A
C1757     Br1769   1.921       .  S
C1758      H1761   1.075       .  S
C1760      C1762   1.402       .  A
C1760      C1766   1.404       .  A
C1762      C1763   1.407       .  A
C1762      H1767   1.083   1_565  S
C1763      C1764   1.425       .  A
C1763     Br1771   1.921   1_565  S
C1764      C1765   1.415       .  A
C1765      C1766   1.395       .  A
C1765      H1768   1.073       .  S
C1766     Br1772   1.924       .  S
C1773      C1774   1.419       .  A
C1774     Br1790   1.914       .  S
C1775      C1776   1.400       .  A
C1775      H1779   1.084       .  S
C1776      C1780   1.477       .  S
C1776      C1777   1.403       .  A
C1777      C1778   1.394       .  A
C1777     Br1789   1.919       .  S
C1778      H1781   1.083       .  S
C1780      C1782   1.404       .  A
C1780      C1786   1.403       .  A
C1782      C1783   1.400       .  A
C1782      H1787   1.084       .  S
C1783      C1784   1.412       .  A
C1783     Br1791   1.917       .  S
C1784      C1785   1.411       .  A
C1785      C1786   1.395       .  A
C1785      H1788   1.083       .  S
C1786     Br1792   1.919       .  S
C1793      C1794   1.417       .  A
C1793      C1798   1.406       .  A
C1794      C1795   1.399       .  A
C1794     Br1810   1.923       .  S
C1795      C1796   1.403       .  A
C1795      H1799   1.084       .  S
C1796      C1800   1.492       .  S
C1796      C1797   1.412       .  A
C1797      C1798   1.404       .  A
C1797     Br1809   1.919       .  S
C1798      H1801   1.083       .  S
C1800      C1802   1.408       .  A
C1800      C1806   1.414       .  A
C1802      C1803   1.405       .  A
C1802      H1807   1.083       .  S
C1803      C1804   1.406       .  A
C1803     Br1811   1.917       .  S
C1804      C1805   1.399       .  A
C1805      C1806   1.398       .  A
C1805      H1808   1.084       .  S
C1806     Br1812   1.921       .  S
C1813      C1814   1.417       .  A
C1813      C1818   1.412       .  A
C1814      C1815   1.402       .  A
C1814     Br1830   1.909       .  S
C1815      C1816   1.399       .  A
C1815      H1819   1.084       .  S
C1816      C1820   1.479       .  S
C1816      C1817   1.402       .  A
C1817      C1818   1.399       .  A
C1817     Br1829   1.918       .  S
C1818      H1821   1.083       .  S
C1820      C1822   1.403       .  A
C1820      C1826   1.406       .  A
C1822      H1827   1.083       .  S
C1823      C1824   1.410   1_554  A
C1823     Br1831   1.916   1_554  S
C1825      C1826   1.399       .  A
C1825      H1828   1.084       .  S
C1826     Br1832   1.917       .  S
C1833      C1834   1.413       .  A
C1833      C1838   1.407       .  A
C1834      C1835   1.404       .  A
C1834     Br1850   1.919       .  S
C1835      C1836   1.403       .  A
C1835      H1839   1.083       .  S
C1836      C1840   1.486       .  S
C1836      C1837   1.407       .  A
C1837      C1838   1.404       .  A
C1837     Br1849   1.918       .  S
C1838      H1841   1.084   1_565  S
C1840      C1842   1.401       .  A
C1840      C1846   1.407       .  A
C1842      C1843   1.403       .  A
C1842      H1847   1.083       .  S
C1843      C1844   1.416       .  A
C1843     Br1851   1.920       .  S
C1844      C1845   1.408       .  A
C1845      C1846   1.404       .  A
C1845      H1848   1.083       .  S
C1846     Br1852   1.918       .  S
C1853      C1854   1.426       .  A
C1853      C1858   1.415       .  A
C1854      C1855   1.398       .  A
C1854     Br1870   1.923       .  S
C1855      C1856   1.397       .  A
C1855      H1859   1.083       .  S
C1856      C1860   1.493       .  S
C1856      C1857   1.408       .  A
C1857      C1858   1.409       .  A
C1857     Br1869   1.917       .  S
C1858      H1861   1.077       .  S
C1860      C1862   1.402       .  A
C1860      C1866   1.405       .  A
C1862      C1863   1.408       .  A
C1862      H1867   1.083       .  S
C1863      C1864   1.424       .  A
C1863     Br1871   1.922       .  S
C1864      C1865   1.417       .  A
C1865      C1866   1.400       .  A
C1865      H1868   1.073       .  S
C1866     Br1872   1.921       .  S
