geometry optimzed in LAMMPS
_audit_creation_date              2020-11-30 
_audit_creation_method            'lammps2cif' 
_symmetry_space_group_name_H-M    'P1' 
_symmetry_Int_Tables_number       1 
_symmetry_cell_setting            triclinic 
loop_ 
_symmetry_equiv_pos_as_xyz 
  x,y,z 
_cell_length_a                    48.29448899 
_cell_length_b                    48.738789490875654 
_cell_length_c                    51.66349299813881 
_cell_angle_alpha                 88.82726644148882 
_cell_angle_beta                  89.10197810953373 
_cell_angle_gamma                 88.94676564737298 
loop_ 
_atom_site_label 
_atom_site_type_symbol 
_atom_site_fract_x 
_atom_site_fract_y 
_atom_site_fract_z 
_atom_site_charge 
Zr1        Zr  0.97657490  0.99338629  0.04753039     2.17500
O2          O  0.93957623  0.00191368  0.07921425    -0.51900
O3          O  0.00141601  0.96704179  0.08092542    -0.75100
O4          O  0.94358255  0.95593445  0.05082693    -0.81900
O5          O  0.99948159  0.06802575  0.05287234    -0.83600
O6          O  0.95253559  0.92707168  0.01755682    -0.79200
O7          O  0.97483914  0.03478693  0.07398406    -0.90900
O8          O  0.04310671  0.95365936  0.06434336    -0.76800
O9          O  0.00368380  0.95792914  0.02780156    -0.86300
O10         O  0.02212402  0.01083737  0.04190667    -0.86000
O11         O  0.95458394  0.98514140  0.00690578    -0.72800
O12         O  0.97225555  0.03354756  0.01999291    -0.84900
Zr13       Zr  0.02375468  0.00598514  0.95299583     2.26400
Zr14       Zr  0.98268566  0.95017641  0.98696679     2.06300
Zr15       Zr  0.01812830  0.04986474  0.01314769     2.10000
Zr16       Zr  0.04897343  0.97556551  0.02218260     1.78800
O17         O  0.99978762  0.09485355  0.00015537    -0.93700
O18         O  0.06745753  0.92910780  0.01695537    -0.41500
O19         O  0.04568914  0.01464941  0.99347979    -0.78100
O20         O  0.02891590  0.96630775  0.98142971    -0.96800
O21         O  0.97803340  0.98933559  0.95875884    -0.90100
O22         O  0.99709314  0.04201605  0.97239962    -0.93000
C23         C  0.02466409  0.95384833  0.08242670     1.00800
C24         C  0.98461781  0.05917094  0.07187183     1.13700
C25         C  0.93955653  0.93386158  0.03831358     1.04500
O26         O  0.99686256  0.90223269  0.99224552    -0.95100
O27         O  0.00234155  0.93130744  0.94749952    -0.90900
O28         O  0.03106763  0.96319576  0.92955829    -0.84000
C29         C  0.02056121  0.93913976  0.93071630     1.11100
O30         O  0.90808072  0.03293240  0.00265433    -0.97100
Zr31       Zr  0.95164521  0.02481491  0.97928611     1.88900
O32         O  0.99516602  0.02615524  0.91823825    -0.73700
O33         O  0.94129782  0.93921812  0.96321456    -0.53000
O34         O  0.91432900  0.00036638  0.95904612    -0.97700
O35         O  0.93768846  0.07312428  0.97925280    -0.54900
O36         O  0.95276436  0.03810971  0.93425050    -0.74300
C37         C  0.97034978  0.03583198  0.91562455     0.98100
O38         O  0.05648066  0.00193063  0.91669443    -0.63100
O39         O  0.05521933  0.06858456  0.03852340    -0.57900
O40         O  0.05924891  0.04123322  0.95175691    -0.94600
O41         O  0.05522002  0.06820626  0.98669069    -0.93000
O42         O  0.08228729  0.99832896  0.04898032    -0.93300
O43         O  0.09544768  0.97442013  0.00317069    -0.92100
C44         C  0.06712158  0.06133625  0.96545233     1.16900
H45         H  0.02964615  0.01569465  0.05836176     0.32900
H46         H  0.04100826  0.95239103  0.97419667     0.43700
H47         H  0.99708832  0.05843380  0.96158998     0.37200
H48         H  0.93576105  0.97909895  0.00932110     0.33700
H49         H  0.08385752  0.92791913  0.02821249     0.25500
H50         H  0.94421568  0.94742241  0.94571799     0.31500
H51         H  0.90632037  0.01351033  0.94622001     0.37400
H52         H  0.09175734  0.98323812  0.05867491     0.31800
H53         H  0.04890507  0.08741349  0.04283257     0.30700
H54         H  0.01453530  0.10776848  0.00445316     0.32400
H55         H  0.95039627  0.08227141  0.96672702     0.31300
H56         H  0.09283999  0.98005941  0.98483386     0.35300
H57         H  0.07513903  0.00073362  0.92438022     0.28100
H58         H  0.93944083  0.98562905  0.09099813     0.32300
H59         H  0.89468384  0.03934867  0.98943908     0.35200
H60         H  0.05486607  0.05831907  0.05524872     0.27800
H61         H  0.05578299  0.01980849  0.90724519     0.40600
H62         H  0.01529226  0.90279266  0.00028556     0.30700
H63         H  0.05371999  0.91712779  0.02569949     0.38300
H64         H  0.94332610  0.07970416  0.99635796     0.30200
H65         H  0.94280766  0.91917222  0.96062209     0.30200
H66         H  0.92211977  0.00110863  0.06947468     0.30500
C67         C  0.04951154  0.34098627  0.14114589     0.79700
N68         N  0.06685697  0.34603249  0.16103140    -0.78600
C69         C  0.07399392  0.32569036  0.17818110     0.82100
N70         N  0.06377068  0.30025802  0.17535532    -0.78600
C71         C  0.04652276  0.29476663  0.15584394     0.82200
N72         N  0.03969416  0.31519780  0.13873356    -0.80300
C73         C  0.96805343  0.15314275  0.13638211     0.79700
N74         N  0.94385632  0.15878083  0.14942572    -0.78600
C75         C  0.94013503  0.18313294  0.16160458     0.82100
N76         N  0.96064994  0.20159763  0.16056396    -0.78600
C77         C  0.98448891  0.19656427  0.14743922     0.82200
N78         N  0.98821969  0.17238305  0.13519856    -0.80300
C79         C  0.80765906  0.15117291  0.41937473     0.79700
N80         N  0.82968855  0.13339680  0.41975091    -0.78600
C81         C  0.83356029  0.11572925  0.44002171     0.82100
N82         N  0.81578023  0.11650576  0.46046142    -0.78600
C83         C  0.79380735  0.13417894  0.46089384     0.82200
N84         N  0.78982707  0.15153865  0.44019741    -0.80300
C85         C  0.70876591  0.11993443  0.59446354     0.79700
N86         N  0.68615643  0.10450783  0.59029076    -0.78600
C87         C  0.68058511  0.09564445  0.56616317     0.82100
N88         N  0.69766898  0.10274998  0.54604814    -0.78600
C89         C  0.72053750  0.11778262  0.54993391     0.82200
N90         N  0.72593720  0.12630195  0.57415200    -0.80300
Zr91       Zr  0.70133728  0.25652111  0.22598172     2.17500
O92         O  0.65855086  0.27805766  0.21034250    -0.51900
O93         O  0.67475109  0.21495326  0.21761165    -0.75100
O94         O  0.70248544  0.26969343  0.17972951    -0.81900
O95         O  0.68371509  0.27396221  0.29708733    -0.83600
O96         O  0.74552151  0.26309387  0.16263170    -0.79200
O97         O  0.66666544  0.27522954  0.25631918    -0.90900
O98         O  0.70206043  0.17773213  0.22647757    -0.76800
O99         O  0.73407222  0.22328774  0.21060612    -0.86300
O100        O  0.71014925  0.22600244  0.26168189    -0.86000
O101        O  0.74163861  0.28272284  0.21379227    -0.72800
O102        O  0.71967794  0.28390373  0.25983220    -0.84900
Zr103      Zr  0.80304832  0.24460882  0.26760144     2.26400
Zr104      Zr  0.77450926  0.24885403  0.19881244     2.06300
Zr105      Zr  0.72936362  0.25294957  0.29512268     2.10000
Zr106      Zr  0.74337617  0.19329771  0.24652785     1.78800
O107        O  0.73278132  0.28642486  0.32925144    -0.93700
O108        O  0.76205583  0.16189346  0.21424942    -0.41500
O109        O  0.76229032  0.21984307  0.27991462    -0.78100
O110        O  0.78434390  0.21702868  0.23385768    -0.96800
O111        O  0.79391162  0.27561950  0.23231003    -0.90100
O112        O  0.77033627  0.27767152  0.28360976    -0.93000
C113        C  0.67948641  0.18885225  0.21845015     1.00800
C114        C  0.66454619  0.27947876  0.28079325     1.13700
C115        C  0.72001178  0.27054996  0.16066785     1.04500
O116        O  0.77879582  0.21502671  0.16483902    -0.95100
O117        O  0.82170756  0.23192247  0.19552171    -0.90900
O118        O  0.83881831  0.22952648  0.23625039    -0.84000
C119        C  0.84103677  0.22626247  0.21161620     1.11100
O120        O  0.73006260  0.34631962  0.23579184    -0.97100
Zr121      Zr  0.76079836  0.30818935  0.24820036     1.88900
O122        O  0.82947262  0.28584368  0.27781749    -0.73700
O123        O  0.80066085  0.28319595  0.17441430    -0.53000
O124        O  0.78089317  0.33679924  0.21377516    -0.97700
O125        O  0.74781974  0.33759240  0.28422005    -0.54900
O126        O  0.80495619  0.32314745  0.26343875    -0.74300
C127        C  0.82644721  0.31187033  0.27358238     0.98100
O128        O  0.84277562  0.22298202  0.28897826    -0.63100
O129        O  0.69968915  0.22375066  0.32211628    -0.57900
O130        O  0.80004062  0.22393706  0.31140288    -0.94600
O131        O  0.75679026  0.23031213  0.32834953    -0.93000
O132        O  0.71902702  0.16651658  0.27973271    -0.93300
O133        O  0.77068493  0.15644432  0.26673641    -0.92100
C134        C  0.78182979  0.22128426  0.32979562     1.16900
H135        H  0.69331820  0.21727375  0.26753046     0.32900
H136        H  0.79713402  0.20264685  0.22872604     0.43700
H137        H  0.77746678  0.28701303  0.29830178     0.37200
H138        H  0.73752658  0.29628945  0.20046159     0.33700
H139        H  0.75467074  0.14371558  0.21932839     0.25500
H140        H  0.80460991  0.27467678  0.15747965     0.31500
H141        H  0.76855569  0.33507168  0.19880332     0.37400
H142        H  0.72252797  0.17608612  0.29605585     0.31800
H143        H  0.69464258  0.23502029  0.33726722     0.30700
H144        H  0.71818127  0.28134206  0.34203492     0.32400
H145        H  0.76348746  0.33626128  0.29633375     0.31300
H146        H  0.78579097  0.16589870  0.27549651     0.35300
H147        H  0.84736334  0.20612964  0.27929294     0.28100
H148        H  0.65261324  0.26700213  0.19561250     0.32300
H149        H  0.74040130  0.36316736  0.23934087     0.35200
H150        H  0.68218562  0.22217088  0.31258735     0.27800
H151        H  0.85841737  0.23543171  0.28550404     0.40600
H152        H  0.75993829  0.20772332  0.16307993     0.30700
H153        H  0.75219643  0.16699902  0.19814979     0.38300
H154        H  0.73254038  0.32792329  0.29330272     0.30200
H155        H  0.78708962  0.29810176  0.17049954     0.30200
H156        H  0.66378434  0.29605146  0.20266786     0.30500
C157        C  0.81508553  0.67766534  0.55938030     0.79700
N158        N  0.79346308  0.67658184  0.54295753    -0.78600
C159        C  0.79635418  0.66383116  0.51998423     0.82100
N160        N  0.82099639  0.65176749  0.51343392    -0.78600
C161        C  0.84291133  0.65262320  0.52959898     0.82200
N162        N  0.83968064  0.66566689  0.55251572    -0.80300
C163        C  0.66094655  0.64427079  0.43571291     0.79700
N164        N  0.68237123  0.64299275  0.45250754    -0.78600
C165        C  0.70194898  0.66269493  0.45201742     0.82100
N166        N  0.70004168  0.68343760  0.43410707    -0.78600
C167        C  0.67892824  0.68500987  0.41711243     0.82200
N168        N  0.65960166  0.66514783  0.41803346    -0.80300
Zr169      Zr  0.00072903  0.45230958  0.48556143     2.17500
O170        O  0.97696312  0.40876544  0.48301125    -0.51900
O171        O  0.04400579  0.42641394  0.47771288    -0.75100
O172        O  0.98723334  0.44218621  0.44080812    -0.81900
O173        O  0.98921749  0.44768071  0.55918062    -0.83600
O174        O  0.99327415  0.48074322  0.41600919    -0.79200
O175        O  0.98775300  0.42268189  0.52283446    -0.90900
O176        O  0.07981415  0.45528379  0.48329262    -0.76800
O177        O  0.03209302  0.48205761  0.46293891    -0.86300
O178        O  0.03149023  0.46929942  0.51713400    -0.86000
O179        O  0.97205767  0.48840058  0.46689165    -0.72800
O180        O  0.97231032  0.47655661  0.51656278    -0.84900
Zr181      Zr  0.00655292  0.55968238  0.50694283     2.26400
Zr182      Zr  0.00397164  0.51826696  0.44462588     2.06300
Zr183      Zr  0.00323822  0.49377063  0.54771078     2.10000
Zr184      Zr  0.06203943  0.49963981  0.49463010     1.78800
O185        O  0.96778700  0.49955326  0.58127689    -0.93700
O186        O  0.09364810  0.50878129  0.45838408    -0.41500
O187        O  0.03474672  0.52371141  0.52582186    -0.78100
O188        O  0.03529443  0.53615007  0.47550650    -0.96800
O189        O  0.97597066  0.54308901  0.47530544    -0.90100
O190        O  0.97531051  0.53024878  0.52982163    -0.93000
C191        C  0.06991621  0.43202033  0.47792955     1.00800
C192        C  0.98472099  0.42529694  0.54752606     1.13700
C193        C  0.98651618  0.45543127  0.41893345     1.04500
O194        O  0.04075070  0.51708505  0.41182615    -0.95100
O195        O  0.01349534  0.56568403  0.43210535    -0.90900
O196        O  0.01495599  0.58963117  0.46935394    -0.84000
C197        C  0.01658500  0.58792006  0.44461900     1.11100
O198        O  0.90981115  0.47848360  0.49609862    -0.97100
Zr199      Zr  0.94521517  0.51333451  0.49803049     1.88900
O200        O  0.96365656  0.58598017  0.51499904    -0.73700
O201        O  0.96787742  0.53428690  0.41525893    -0.53000
O202        O  0.91629140  0.52090529  0.46019406    -0.97700
O203        O  0.91439197  0.51160709  0.53588909    -0.54900
O204        O  0.92801986  0.55977654  0.50249356    -0.74300
C205        C  0.93792552  0.58216032  0.51049719     0.98100
O206        O  0.02994790  0.60204421  0.51697877    -0.63100
O207        O  0.03512444  0.47247483  0.57857044    -0.57900
O208        O  0.02473592  0.56868341  0.54986290    -0.94600
O209        O  0.02027690  0.52986538  0.57457986    -0.93000
O210        O  0.09345743  0.48487562  0.52879380    -0.93300
O211        O  0.09567972  0.53434301  0.50469010    -0.92100
C212        C  0.02743293  0.55494056  0.57123370     1.16900
H213        H  0.04156219  0.45447988  0.52560664     0.32900
H214        H  0.04824779  0.54852464  0.46721520     0.43700
H215        H  0.96533579  0.53987088  0.54329150     0.37200
H216        H  0.95873080  0.48127008  0.45512539     0.33700
H217        H  0.11121387  0.49938538  0.46327435     0.25500
H218        H  0.97585723  0.53160970  0.39770127     0.31500
H219        H  0.91608944  0.54099431  0.45693729     0.37400
H220        H  0.08792709  0.49606197  0.54385238     0.31800
H221        H  0.05312098  0.48122038  0.57488569     0.30700
H222        H  0.97794486  0.49821135  0.59776352     0.32400
H223        H  0.91205818  0.53077911  0.54161202     0.31300
H224        H  0.08459226  0.55153616  0.50626437     0.35300
H225        H  0.04628102  0.60310630  0.50518850     0.28100
H226        H  0.98620250  0.39858000  0.46881510     0.32300
H227        H  0.89195633  0.48871207  0.49486174     0.35200
H228        H  0.02920607  0.47955708  0.59565133     0.27800
H229        H  0.01740021  0.61725988  0.51142951     0.40600
H230        H  0.05419075  0.53085587  0.41727542     0.30700
H231        H  0.08658663  0.49782829  0.44406448     0.38300
H232        H  0.92549591  0.50245817  0.54959949     0.30200
H233        H  0.95316618  0.52045545  0.41699982     0.30200
H234        H  0.95821349  0.41359531  0.47669125     0.30500
C235        C  0.43460764  0.80599785  0.14413494     0.79700
N236        N  0.45373917  0.78686781  0.13651131    -0.78600
C237        C  0.47693669  0.79460964  0.12342831     0.82100
N238        N  0.48120166  0.82149882  0.11824196    -0.78600
C239        C  0.46253159  0.84092794  0.12585650     0.82200
N240        N  0.43882878  0.83309887  0.13846416    -0.80300
C241        C  0.58186063  0.68002876  0.07128475     0.79700
N242        N  0.56105087  0.69821193  0.07684563    -0.78600
C243        C  0.56512945  0.72000502  0.09202603     0.82100
N244        N  0.59061843  0.72354009  0.10194892    -0.78600
C245        C  0.61188151  0.70568372  0.09688191     0.82200
N246        N  0.60743774  0.68372319  0.08155414    -0.80300
C247        C  0.13709142  0.07314171  0.27898389     0.79700
N248        N  0.12413422  0.07064565  0.30252821    -0.78600
C249        C  0.11181691  0.04683900  0.30981102     0.82100
N250        N  0.11279190  0.02549821  0.29358367    -0.78600
C251        C  0.12617111  0.02717890  0.27049220     0.82200
N252        N  0.13803039  0.05120289  0.26296935    -0.80300
C253        C  0.07193203  0.91583054  0.17730582     0.79700
N254        N  0.08294541  0.89043970  0.18265911    -0.78600
C255        C  0.10196429  0.88710132  0.20166472     0.82100
N256        N  0.11094208  0.90931533  0.21424562    -0.78600
C257        C  0.10085589  0.93479793  0.20846337     0.82200
N258        N  0.08122713  0.93778742  0.19013881    -0.80300
Zr259      Zr  0.20471001  0.73543604  0.23869551     2.17500
O260        O  0.16703755  0.70373259  0.23223806    -0.51900
O261        O  0.17463405  0.77419299  0.22710177    -0.75100
O262        O  0.17269858  0.73149087  0.27530925    -0.81900
O263        O  0.23551952  0.72259869  0.17214133    -0.83600
O264        O  0.19555276  0.73738582  0.31274190    -0.79200
O265        O  0.19569643  0.71851188  0.19594875    -0.90900
O266        O  0.20049856  0.81264190  0.22811614    -0.76800
O267        O  0.21804851  0.77059396  0.26688661    -0.86300
O268        O  0.23326320  0.76533856  0.21322039    -0.86000
O269        O  0.22853677  0.71171074  0.27326928    -0.72800
O270        O  0.24319767  0.70791163  0.22364964    -0.84900
Zr271      Zr  0.31045230  0.75060069  0.26164987     2.26400
Zr272      Zr  0.24307248  0.74752024  0.30079819     2.06300
Zr273      Zr  0.27231051  0.73833021  0.19922954     2.10000
Zr274      Zr  0.24680928  0.80015043  0.24162422     1.78800
O275        O  0.29181754  0.69920951  0.17618707    -0.93700
O276        O  0.22993468  0.83249973  0.27382675    -0.41500
O277        O  0.28638412  0.77405531  0.22701484    -0.78100
O278        O  0.27172310  0.77861190  0.27629908    -0.96800
O279        O  0.28197459  0.72037849  0.28668871    -0.90100
O280        O  0.29724065  0.71528632  0.23321728    -0.93000
C281        C  0.17784035  0.80015282  0.22448825     1.00800
C282        C  0.20999958  0.71611567  0.17497824     1.13700
C283        C  0.17368116  0.73228432  0.30008356     1.04500
O284        O  0.22288455  0.78388633  0.32713936    -0.95100
O285        O  0.27887635  0.76309176  0.32900460    -0.90900
O286        O  0.31767136  0.76973577  0.30435342    -0.84000
C287        C  0.30369504  0.77156401  0.32565461     1.11100
O288        O  0.23496769  0.64974224  0.24979726    -0.97100
Zr289      Zr  0.26783212  0.68576551  0.25821711     1.88900
O290        O  0.34017966  0.71024360  0.26939837    -0.73700
O291        O  0.24621745  0.71461010  0.33676042    -0.53000
O292        O  0.26003669  0.66046508  0.29877198    -0.97700
O293        O  0.28542228  0.65039423  0.22919342    -0.54900
O294        O  0.31312748  0.67276481  0.27329248    -0.74300
C295        C  0.33645000  0.68462820  0.27416160     0.98100
O296        O  0.35443796  0.77017821  0.27381136    -0.63100
O297        O  0.27149556  0.76701595  0.16005259    -0.57900
O298        O  0.33823575  0.76646321  0.22444154    -0.94600
O299        O  0.31799393  0.75482851  0.18699728    -0.93000
O300        O  0.25193591  0.82850305  0.20255121    -0.93300
O301        O  0.27889375  0.83767517  0.24613325    -0.92100
C302        C  0.33783642  0.76516519  0.19961287     1.16900
H303        H  0.22341927  0.77293633  0.19851775     0.32900
H304        H  0.27735397  0.79354399  0.28685562     0.43700
H305        H  0.31314968  0.70551752  0.22619853     0.37200
H306        H  0.21632403  0.69927826  0.28243231     0.33700
H307        H  0.22231459  0.84821551  0.26359487     0.25500
H308        H  0.23727992  0.72406158  0.35156316     0.31500
H309        H  0.27164425  0.66962414  0.31151861     0.37400
H310        H  0.26044313  0.81609360  0.18962673     0.31800
H311        H  0.27365777  0.75404570  0.14562830     0.30700
H312        H  0.29490982  0.70614746  0.15824940     0.32400
H313        H  0.30568475  0.65297399  0.22792868     0.31300
H314        H  0.29499745  0.82937212  0.25520542     0.35300
H315        H  0.36902203  0.75881408  0.26532292     0.28100
H316        H  0.14963049  0.71436039  0.23517955     0.32300
H317        H  0.24224684  0.63309752  0.25886526     0.35200
H318        H  0.25222984  0.77412057  0.15873802     0.27800
H319        H  0.35534114  0.78834019  0.26492794     0.40600
H320        H  0.23699908  0.79835670  0.32724314     0.30700
H321        H  0.21344778  0.82378055  0.28182966     0.38300
H322        H  0.27853253  0.65608698  0.21192295     0.30200
H323        H  0.23331776  0.69989218  0.33247506     0.30200
H324        H  0.16797660  0.69012570  0.24671355     0.30500
Zr325      Zr  0.26126386  0.20385332  0.24318394     2.17500
O326        O  0.27886627  0.15733332  0.25168452    -0.51900
O327        O  0.26831306  0.18862402  0.19854833    -0.75100
O328        O  0.22335271  0.17129058  0.24980436    -0.81900
O329        O  0.33189586  0.23293119  0.26077562    -0.83600
O330        O  0.18270753  0.19511464  0.25293724    -0.79200
O331        O  0.30751955  0.19351249  0.25997325    -0.90900
O332        O  0.25784997  0.22415319  0.17138052    -0.76800
O333        O  0.22519563  0.22654921  0.21971431    -0.86300
O334        O  0.28247301  0.24051072  0.21920428    -0.86000
O335        O  0.22891717  0.21973698  0.27591250    -0.72800
O336        O  0.28057828  0.23368192  0.27421022    -0.84900
Zr337      Zr  0.23222688  0.31013961  0.25851212     2.26400
Zr338      Zr  0.19332295  0.24326864  0.25196506     2.06300
Zr339      Zr  0.30083926  0.27060540  0.25029383     2.10000
Zr340      Zr  0.24626543  0.26356446  0.19639233     1.78800
O341        O  0.33135444  0.28839973  0.28286138    -0.93700
O342        O  0.20603534  0.25929840  0.16898638    -0.41500
O343        O  0.26509103  0.29384196  0.22673734    -0.78100
O344        O  0.21310841  0.28017174  0.22701753    -0.96800
O345        O  0.21197373  0.27334295  0.28301452    -0.90100
O346        O  0.26882661  0.28798823  0.28198631    -0.93000
C347        C  0.26529223  0.19928023  0.17574333     1.00800
C348        C  0.32958232  0.20699760  0.26433704     1.13700
C349        C  0.19682690  0.17261382  0.25256403     1.04500
O350        O  0.15894927  0.23397542  0.21943394    -0.95100
O351        O  0.15997068  0.28054653  0.24867716    -0.90900
O352        O  0.18352582  0.32048976  0.24852574    -0.84000
C353        C  0.16126297  0.30667640  0.24606083     1.11100
O354        O  0.25817693  0.20991458  0.33248081    -0.97100
Zr355      Zr  0.24871177  0.25068839  0.30568265     1.88900
O356        O  0.23037995  0.32635474  0.30324706    -0.73700
O357        O  0.16086591  0.23566926  0.28784559    -0.53000
O358        O  0.21031576  0.24018175  0.33515611    -0.97700
O359        O  0.29096744  0.25421291  0.33065020    -0.54900
O360        O  0.24044656  0.29078977  0.33082114    -0.74300
C361        C  0.23411400  0.31590012  0.32603713     0.98100
O362        O  0.21398048  0.35682495  0.25265428    -0.63100
O363        O  0.33806423  0.27015874  0.21788309    -0.57900
O364        O  0.26813642  0.34163556  0.24165829    -0.94600
O365        O  0.30894815  0.31789065  0.23928039    -0.93000
O366        O  0.28500455  0.27704495  0.16848328    -0.93300
O367        O  0.23706053  0.30512537  0.17070603    -0.92100
C368        C  0.29430835  0.33988325  0.23640553     1.16900
H369        H  0.29698284  0.23388011  0.20772486     0.32900
H370        H  0.19952815  0.28926710  0.21620109     0.43700
H371        H  0.27792235  0.30071896  0.29298334     0.37200
H372        H  0.22157054  0.20468209  0.28611844     0.33700
H373        H  0.21333967  0.26086255  0.15101990     0.25500
H374        H  0.15883675  0.25367636  0.29626574     0.31500
H375        H  0.19965988  0.22609364  0.32628929     0.37400
H376        H  0.29135293  0.29453733  0.17557156     0.31800
H377        H  0.32966315  0.27800550  0.20197771     0.30700
H378        H  0.34977609  0.28007066  0.27903931     0.32400
H379        H  0.30432609  0.24120344  0.32255118     0.31300
H380        H  0.23922958  0.32028188  0.18294943     0.35300
H381        H  0.22455602  0.36812509  0.26460634     0.28100
H382        H  0.27374417  0.14667427  0.23643706     0.32300
H383        H  0.25807292  0.21635155  0.35054564     0.35200
H384        H  0.35105872  0.28430432  0.22341489     0.27800
H385        H  0.21990617  0.36287909  0.23504102     0.40600
H386        H  0.16810134  0.22064791  0.20772603     0.30700
H387        H  0.20063769  0.23987455  0.17104384     0.38300
H388        H  0.29839311  0.27253644  0.32624867     0.30200
H389        H  0.14283065  0.23293978  0.27949699     0.30200
H390        H  0.26763258  0.14979859  0.26627584     0.30500
C391        C  0.60124826  0.80673602  0.62225419     0.79700
N392        N  0.58078364  0.78802264  0.62447825    -0.78600
C393        C  0.55535881  0.79361784  0.61463901     0.82100
N394        N  0.55069913  0.81792054  0.60201136    -0.78600
C395        C  0.57109943  0.83664994  0.59944769     0.82200
N396        N  0.59626459  0.83096990  0.60971265    -0.80300
C397        C  0.45814561  0.66669516  0.61233740     0.79700
N398        N  0.47678446  0.68717984  0.61163758    -0.78600
C399        C  0.46972440  0.71269238  0.61946000     0.82100
N400        N  0.44352392  0.71815668  0.62775194    -0.78600
C401        C  0.42422909  0.69820668  0.62815393     0.82200
N402        N  0.43165075  0.67232377  0.62061092    -0.80300
Zr403      Zr  0.51971951  0.00479259  0.54567259     2.17500
O404        O  0.52979302  0.99955391  0.59156620    -0.51900
O405        O  0.56205345  0.03043599  0.55279648    -0.75100
O406        O  0.54143623  0.96011457  0.55749239    -0.81900
O407        O  0.45659545  0.05414239  0.55598054    -0.83600
O408        O  0.55449675  0.93858029  0.52048408    -0.79200
O409        O  0.48809470  0.02709122  0.57704171    -0.90900
O410        O  0.57573412  0.05052920  0.51483948    -0.76800
O411        O  0.54852803  0.00163772  0.50796038    -0.86300
O412        O  0.51236065  0.04656122  0.52146717    -0.86000
O413        O  0.50314056  0.96562964  0.52300218    -0.72800
O414        O  0.47124784  0.00756238  0.53564756    -0.84900
Zr415      Zr  0.47811845  0.00473599  0.44977862     2.26400
Zr416      Zr  0.53248617  0.96288857  0.48512606     2.06300
Zr417      Zr  0.46434250  0.04842331  0.50995358     2.10000
Zr418      Zr  0.54064669  0.04293617  0.48355776     1.78800
O419        O  0.41417838  0.05267579  0.51460207    -0.93700
O420        O  0.58429708  0.03424523  0.46056360    -0.41500
O421        O  0.49309727  0.04419085  0.47246531    -0.78100
O422        O  0.52683376  0.00408869  0.45965075    -0.96800
O423        O  0.48432733  0.96391418  0.47494887    -0.90100
O424        O  0.44835385  0.00960850  0.48687208    -0.93000
C425        C  0.57898446  0.04461593  0.53881622     1.00800
C426        C  0.46729112  0.04408870  0.57678687     1.13700
C427        C  0.55244527  0.93982111  0.54517687     1.04500
O428        O  0.58177427  0.96092753  0.47437868    -0.95100
O429        O  0.53653494  0.95195203  0.43959474    -0.90900
O430        O  0.50713834  0.98055309  0.41777012    -0.84000
C431        C  0.52640004  0.96195924  0.41852066     1.11100
O432        O  0.44688249  0.94791038  0.55500792    -0.97100
Zr433      Zr  0.45547670  0.96912978  0.51254778     1.88900
O434        O  0.43982470  0.97388732  0.44160008    -0.73700
O435        O  0.52625166  0.91361124  0.48158427    -0.53000
O436        O  0.45623092  0.91910745  0.51392486    -0.97700
O437        O  0.41079226  0.98434019  0.53019669    -0.54900
O438        O  0.42531879  0.95412640  0.47948503    -0.74300
C439        C  0.42407459  0.95791489  0.45500706     0.98100
O440        O  0.46214763  0.01597539  0.40620985    -0.63100
O441        O  0.47031956  0.09689888  0.51873560    -0.57900
O442        O  0.46091970  0.05036647  0.43743415    -0.94600
O443        O  0.45004010  0.07587618  0.47245416    -0.93000
O444        O  0.54142662  0.09206033  0.49116473    -0.93300
O445        O  0.54108881  0.07007469  0.44343333    -0.92100
C446        C  0.45181793  0.07257542  0.44788316     1.16900
H447        H  0.51728125  0.06219862  0.53156400     0.32900
H448        H  0.53872219  0.00425782  0.44450557     0.43700
H449        H  0.42932197  0.01204996  0.48186227     0.37200
H450        H  0.50344429  0.94873729  0.53292656     0.33700
H451        H  0.59226708  0.05261935  0.45750918     0.25500
H452        H  0.51306116  0.91156605  0.46730842     0.31500
H453        H  0.46620203  0.91372002  0.49787739     0.37400
H454        H  0.52190290  0.09830779  0.48948459     0.31800
H455        H  0.45173395  0.10361099  0.52428400     0.30700
H456        H  0.41086483  0.07105756  0.52197257     0.32400
H457        H  0.39936870  0.98911442  0.51497470     0.31300
H458        H  0.52835572  0.06052642  0.43193184     0.35300
H459        H  0.47887716  0.02115015  0.39609137     0.28100
H460        H  0.55005163  0.99646138  0.59267441     0.32300
H461        H  0.42846044  0.93942580  0.55400962     0.35200
H462        H  0.48156301  0.09739694  0.53456980     0.27800
H463        H  0.45628805  0.99841052  0.39889909     0.40600
H464        H  0.59109614  0.96759301  0.48992360     0.30700
H465        H  0.59655493  0.02532848  0.47356123     0.38300
H466        H  0.41445397  0.00215936  0.53821753     0.30200
H467        H  0.54415854  0.90651924  0.47462311     0.30200
H468        H  0.52142733  0.98206798  0.59747131     0.30500
C469        C  0.31149566  0.38237560  0.59339530     0.79700
N470        N  0.33753645  0.38982445  0.58667738    -0.78600
C471        C  0.34480706  0.39525983  0.56166925     0.82100
N472        N  0.32538856  0.39348850  0.54310728    -0.78600
C473        C  0.29906686  0.38625778  0.54933407     0.82200
N474        N  0.29230775  0.38058457  0.57449371    -0.80300
C475        C  0.20616496  0.36454634  0.42403448     0.79700
N476        N  0.17939025  0.36999309  0.43069228    -0.78600
C477        C  0.17214564  0.37769149  0.45497943     0.82100
N478        N  0.19221802  0.38007867  0.47280644    -0.78600
C479        C  0.21925447  0.37452635  0.46687074     0.82200
N480        N  0.22595753  0.36682882  0.44235671    -0.80300
C481        C  0.53599574  0.34184746  0.36128474     0.79700
N482        N  0.51865251  0.32031462  0.36499296    -0.78600
C483        C  0.52413749  0.29575690  0.35378937     0.82100
N484        N  0.54697954  0.29282043  0.33850932    -0.78600
C485        C  0.56462284  0.31388555  0.33458019     0.82200
N486        N  0.55903990  0.33830507  0.34603584    -0.80300
C487        C  0.43502806  0.16074036  0.37250716     0.79700
N488        N  0.45149829  0.18304019  0.37421381    -0.78600
C489        C  0.44926536  0.20419317  0.35671098     0.82100
N490        N  0.43071111  0.20257798  0.33744658    -0.78600
C491        C  0.41400690  0.18066321  0.33567596     0.82200
N492        N  0.41621697  0.15983200  0.35331099    -0.80300
C493        C  0.60766808  0.57077126  0.83644396     0.79700
N494        N  0.60559269  0.55167935  0.81790827    -0.78600
C495        C  0.61874549  0.55506867  0.79468132     0.82100
N496        N  0.63417299  0.57777442  0.79039314    -0.78600
C497        C  0.63608274  0.59714254  0.80880549     0.82200
N498        N  0.62305997  0.59333412  0.83198285    -0.80300
C499        C  0.60028723  0.45110733  0.68042512     0.79700
N500        N  0.59940409  0.47056102  0.69884432    -0.78600
C501        C  0.61507901  0.46812824  0.72029254     0.82100
N502        N  0.63243405  0.44620942  0.72320885    -0.78600
C503        C  0.63401470  0.42643579  0.70510372     0.82200
N504        N  0.61789361  0.42904193  0.68368741    -0.80300
Zr505      Zr  0.53909571  0.50411636  0.44748873     2.17500
O506        O  0.57922453  0.49959247  0.41858336    -0.51900
O507        O  0.51234351  0.52254253  0.41141157    -0.75100
O508        O  0.53716314  0.46142397  0.42250372    -0.81900
O509        O  0.56787748  0.57027131  0.47496471    -0.83600
O510        O  0.50715905  0.43325901  0.44373920    -0.79200
O511        O  0.57199760  0.54149777  0.44080689    -0.90900
O512        O  0.46984552  0.53438488  0.42722803    -0.76800
O513        O  0.49291299  0.48933549  0.45540277    -0.86300
O514        O  0.51406048  0.54206707  0.46576814    -0.86000
O515        O  0.54346260  0.46550850  0.47705562    -0.72800
O516        O  0.56154522  0.51505742  0.48709676    -0.84900
Zr517      Zr  0.49363476  0.49906812  0.54360862     2.26400
Zr518      Zr  0.49676034  0.45187058  0.48580662     2.06300
Zr519      Zr  0.53538755  0.55203369  0.50601687     2.10000
Zr520      Zr  0.46825891  0.52702017  0.47366074     1.78800
O521        O  0.57490305  0.56523067  0.53144482    -0.93700
O522        O  0.42698820  0.50480828  0.45830491    -0.41500
O523        O  0.48936185  0.53727217  0.51376916    -0.78100
O524        O  0.47021767  0.48915918  0.50378637    -0.96800
O525        O  0.51903601  0.46144832  0.52553688    -0.90100
O526        O  0.53969793  0.51435725  0.53599833    -0.93000
C527        C  0.48754127  0.53182836  0.40861127     1.00800
C528        C  0.57839010  0.56307272  0.45323774     1.13700
C529        C  0.52329818  0.43906038  0.42455090     1.04500
O530        O  0.45609354  0.43198620  0.46684226    -0.95100
O531        O  0.46465892  0.43292182  0.51734441    -0.90900
O532        O  0.45772272  0.46436275  0.54866448    -0.84000
C533        C  0.45161045  0.44209253  0.53725618     1.11100
O534        O  0.60763834  0.46391582  0.49440439    -0.97100
Zr535      Zr  0.56476499  0.47701949  0.51683587     1.88900
O536        O  0.52304705  0.48046200  0.57859044    -0.73700
O537        O  0.51709066  0.40665741  0.49494965    -0.53000
O538        O  0.57424734  0.42789468  0.52150897    -0.97700
O539        O  0.60484241  0.50086890  0.53277889    -0.54900
O540        O  0.56472748  0.46646083  0.56242748    -0.74300
C541        C  0.54746148  0.46973668  0.58112534     0.98100
O542        O  0.46780258  0.50584102  0.58395939    -0.63100
O543        O  0.52236706  0.59967161  0.49629938    -0.57900
O544        O  0.48268963  0.54483255  0.56062149    -0.94600
O545        O  0.51277954  0.57496689  0.54216104    -0.93000
O546        O  0.46003078  0.57620122  0.46798028    -0.93300
O547        O  0.42635416  0.54369359  0.49552215    -0.92100
C548        C  0.49332277  0.56880167  0.55833795     1.16900
H549        H  0.51427835  0.55786806  0.45412349     0.32900
H550        H  0.45110263  0.48428400  0.50649332     0.43700
H551        H  0.54802248  0.52020524  0.55175745     0.37200
H552        H  0.55407788  0.45077070  0.46923380     0.33700
H553        H  0.41612255  0.51969355  0.44967318     0.25500
H554        H  0.50269756  0.39366249  0.48991052     0.31500
H555        H  0.55751179  0.42032941  0.53011906     0.37400
H556        H  0.46600118  0.58417688  0.48441780     0.23800
H557        H  0.53864715  0.61040929  0.50111199     0.30700
H558        H  0.56685216  0.57311085  0.54745180     0.32400
H559        H  0.59881630  0.50845572  0.54962045     0.31300
H560        H  0.42178699  0.52914400  0.50846352     0.35300
H561        H  0.44805582  0.50697493  0.57910522     0.28100
H562        H  0.57155359  0.49739211  0.40110025     0.32300
H563        H  0.61941891  0.45497253  0.50776378     0.35200
H564        H  0.52179322  0.60124433  0.47717914     0.27800
H565        H  0.46990070  0.48840920  0.59395774     0.40600
H566        H  0.44149408  0.44642261  0.46826463     0.30700
H567        H  0.43372534  0.49317740  0.44394600     0.38300
H568        H  0.60672440  0.51714934  0.52114825     0.30200
H569        H  0.53203840  0.40430180  0.48180318     0.30200
H570        H  0.58787972  0.48160159  0.42311204     0.30500
C571        C  0.29785886  0.13957676  0.08363596     0.79700
N572        N  0.28044512  0.14063394  0.06315846    -0.78600
C573        C  0.28789122  0.12993426  0.03999415     0.82100
N574        N  0.31350714  0.11834711  0.03731683    -0.78600
C575        C  0.33116179  0.11703625  0.05749239     0.82200
N576        N  0.32337548  0.12773084  0.08061854    -0.80300
C577        C  0.20387149  0.12965875  0.90706682     0.79700
N578        N  0.22183435  0.13295557  0.92678171    -0.78600
C579        C  0.21511429  0.12471983  0.95137391     0.82100
N580        N  0.18995436  0.11342959  0.95606225    -0.78600
C581        C  0.17206605  0.10970684  0.93649195     0.82200
N582        N  0.17914190  0.11784440  0.91212151    -0.80300
C583        C  0.13319206  0.43534383  0.78610268     0.79700
N584        N  0.13299653  0.45737068  0.76962841    -0.78600
C585        C  0.11711115  0.47993101  0.77477325     0.82100
N586        N  0.10130866  0.48028314  0.79689408    -0.78600
C587        C  0.10156576  0.45850393  0.81391904     0.82200
N588        N  0.11750106  0.43609667  0.80813053    -0.80300
C589        C  0.08922193  0.58588603  0.66032211     0.79700
N590        N  0.09127759  0.56654225  0.67956146    -0.78600
C591        C  0.10946404  0.56931874  0.69907716     0.82100
N592        N  0.12622404  0.59139005  0.69900768    -0.78600
C593        C  0.12438874  0.61090525  0.67987978     0.82200
N594        N  0.10586805  0.60812082  0.66060670    -0.80300
Zr595      Zr  0.27215585  0.31262486  0.75371061     2.17500
O596        O  0.27922566  0.35902354  0.76871784    -0.51900
O597        O  0.28410644  0.33620063  0.71277618    -0.75100
O598        O  0.31775449  0.31979750  0.77358823    -0.81900
O599        O  0.19272976  0.32015313  0.75779528    -0.83600
O600        O  0.34359962  0.28065489  0.76899318    -0.79200
O601        O  0.23242809  0.34327659  0.76344420    -0.90900
O602        O  0.27027703  0.30985367  0.67975952    -0.76800
O603        O  0.29707746  0.28173795  0.72621104    -0.86300
O604        O  0.23954053  0.29602481  0.72359548    -0.86000
O605        O  0.28833775  0.27601905  0.78212551    -0.72800
O606        O  0.23584757  0.29088911  0.77872764    -0.84900
Zr607      Zr  0.24625060  0.20558693  0.74931543     2.26400
Zr608      Zr  0.31325299  0.24523786  0.75409611     2.06300
Zr609      Zr  0.20439374  0.27298850  0.74831751     2.10000
Zr610      Zr  0.26433031  0.26445586  0.69689240     1.78800
O611        O  0.16833856  0.26932550  0.78161809    -0.93700
O612        O  0.30733720  0.26238981  0.67157763    -0.41500
O613        O  0.22908108  0.24163891  0.72121638    -0.78100
O614        O  0.28167778  0.22774091  0.72349353    -0.96800
O615        O  0.27814705  0.22254122  0.77948961    -0.90100
O616        O  0.22048073  0.23651523  0.77606319    -0.93000
C617        C  0.27961096  0.33197527  0.68874653     1.00800
C618        C  0.20580708  0.34196699  0.76307639     1.13700
C619        C  0.34021218  0.30541179  0.77665559     1.04500
O620        O  0.34847112  0.24813432  0.71990761    -0.95100
O621        O  0.32612059  0.19822370  0.74427768    -0.90900
O622        O  0.28612971  0.17476156  0.74109824    -0.84000
C623        C  0.31270043  0.17631606  0.74001649     1.11100
O624        O  0.25860118  0.28966717  0.83749488    -0.97100
Zr625      Zr  0.25248821  0.25396936  0.80579801     1.88900
O626        O  0.23486233  0.18126930  0.79005571    -0.73700
O627        O  0.34435373  0.22491360  0.78613079    -0.53000
O628        O  0.28907802  0.24211228  0.83619629    -0.97700
O629        O  0.21038939  0.26138627  0.83161846    -0.54900
O630        O  0.24196816  0.20969412  0.82356468    -0.74300
C631        C  0.23551663  0.18666713  0.81428598     0.98100
O632        O  0.23270369  0.16148360  0.73244837    -0.63100
O633        O  0.17230060  0.29035976  0.71560013    -0.57900
O634        O  0.20218980  0.19898601  0.72773470    -0.94600
O635        O  0.17548044  0.23763863  0.73155923    -0.93000
O636        O  0.22794156  0.27043314  0.66507157    -0.93300
O637        O  0.26338401  0.22834934  0.66500860    -0.92100
C638        C  0.17956646  0.21284315  0.72433267     1.16900
H639        H  0.23127436  0.31094285  0.71362978     0.32900
H640        H  0.29077508  0.21529254  0.71172112     0.43700
H641        H  0.20511501  0.22746043  0.78460230     0.37200
H642        H  0.29965511  0.28187898  0.79606986     0.33700
H643        H  0.30182290  0.26712800  0.65362847     0.25500
H644        H  0.36318287  0.22771761  0.77879982     0.31500
H645        H  0.29879461  0.22602702  0.82865230     0.37400
H646        H  0.21361131  0.28194120  0.67372412     0.31800
H647        H  0.15473090  0.29396707  0.72517663     0.30700
H648        H  0.15077906  0.27215784  0.77222116     0.32400
H649        H  0.19763959  0.24676591  0.82671463     0.31300
H650        H  0.25626696  0.21213397  0.67467897     0.35300
H651        H  0.24495470  0.15794583  0.71727608     0.28100
H652        H  0.29663829  0.36544418  0.76045522     0.32300
H653        H  0.25477910  0.28082522  0.85457442     0.35200
H654        H  0.17899791  0.30876731  0.71038894     0.27800
H655        H  0.23822291  0.14760412  0.74571097     0.40600
H656        H  0.35132493  0.26801860  0.71691346     0.30700
H657        H  0.31802133  0.27837761  0.67700686     0.38300
H658        H  0.20198917  0.27850688  0.82437711     0.30200
H659        H  0.34304843  0.23723984  0.80111246     0.30200
H660        H  0.28310248  0.35723696  0.78743793     0.30500
Zr661      Zr  0.52818435  0.99154978  0.95236179     2.17500
O662        O  0.55948383  0.99479001  0.91488077    -0.51900
O663        O  0.50359756  0.96918299  0.91797698    -0.75100
O664        O  0.56422371  0.95567009  0.95258582    -0.81900
O665        O  0.50154408  0.06538383  0.94164499    -0.83600
O666        O  0.55627798  0.92669499  0.98680037    -0.79200
O667        O  0.53509245  0.03489462  0.92894033    -0.90900
O668        O  0.46189217  0.95576262  0.93375499    -0.76800
O669        O  0.50372973  0.95555251  0.97395320    -0.86300
O670        O  0.48103431  0.00676674  0.95549175    -0.86000
O671        O  0.55031520  0.98584370  0.99370461    -0.72800
O672        O  0.52840269  0.03280151  0.97696429    -0.84900
Zr673      Zr  0.47742849  0.00538832  0.04428552     2.26400
Zr674      Zr  0.52454435  0.95046888  0.01567158     2.06300
Zr675      Zr  0.48089803  0.04708242  0.98111134     2.10000
Zr676      Zr  0.45685276  0.97105465  0.97755672     1.78800
O677        O  0.49228257  0.09486818  0.98774146    -0.93700
O678        O  0.44904652  0.92178747  0.97986932    -0.41500
O679        O  0.45543374  0.01159018  0.00303437    -0.78100
O680        O  0.47677963  0.96429669  0.01917702    -0.96800
O681        O  0.52462936  0.99086919  0.04107081    -0.90100
O682        O  0.50159347  0.04173369  0.02273837    -0.93000
C683        C  0.48011686  0.95772262  0.91562057     1.00800
C684        C  0.52201737  0.05802188  0.92716263     1.13700
C685        C  0.56935433  0.93374497  0.96602625     1.04500
O686        O  0.51461228  0.90171254  0.01504315    -0.95100
O687        O  0.50645791  0.93344535  0.05692768    -0.90900
O688        O  0.47467405  0.96436482  0.07216728    -0.84000
C689        C  0.48758351  0.94107713  0.07315761     1.11100
O690        O  0.59408124  0.03639448  0.99992471    -0.97100
Zr691      Zr  0.54858081  0.02663036  0.01866729     1.88900
O692        O  0.50204607  0.02889930  0.07795693    -0.73700
O693        O  0.56591038  0.94275580  0.04141823    -0.53000
O694        O  0.58615947  0.00433343  0.04255265    -0.97700
O695        O  0.55784142  0.07553953  0.01401259    -0.54900
O696        O  0.54370451  0.04267565  0.06218939    -0.74300
C697        C  0.52543974  0.04061640  0.08026352     0.98100
O698        O  0.44215774  0.99947375  0.07823088    -0.63100
O699        O  0.44309288  0.05929474  0.95210774    -0.57900
O700        O  0.44145599  0.04108768  0.04445709    -0.94600
O701        O  0.44447251  0.06697578  0.00776952    -0.93000
O702        O  0.41727240  0.99217745  0.95567620    -0.93300
O703        O  0.41215982  0.95978021  0.99707188    -0.92100
C704        C  0.43336593  0.06117396  0.02981777     1.16900
H705        H  0.47350819  0.01091156  0.93860671     0.32900
H706        H  0.46599841  0.95012385  0.02755525     0.43700
H707        H  0.49991711  0.05862907  0.03214838     0.37200
H708        H  0.56963012  0.98070910  0.99205166     0.33700
H709        H  0.43353415  0.91884494  0.96798813     0.25500
H710        H  0.56489547  0.92333285  0.04730192     0.31500
H711        H  0.57734925  0.99671212  0.05850357     0.37400
H712        H  0.42426023  0.99769297  0.93825643     0.31800
H713        H  0.42598094  0.05418693  0.96170401     0.30700
H714        H  0.47919724  0.10555620  0.97675277     0.32400
H715        H  0.55126004  0.08381334  0.03038239     0.31300
H716        H  0.41376620  0.96481106  0.01545010     0.35300
H717        H  0.44165011  0.01668074  0.08810810     0.28100
H718        H  0.55894955  0.97674527  0.90645074     0.32300
H719        H  0.60416660  0.04596508  0.01353131     0.35200
H720        H  0.44261240  0.07961307  0.95146423     0.27800
H721        H  0.42416905  0.99899428  0.06930873     0.40600
H722        H  0.50284676  0.89960249  0.99973271     0.30700
H723        H  0.46532618  0.91347890  0.97092992     0.38300
H724        H  0.54455419  0.08242325  0.00091970     0.30200
H725        H  0.58158609  0.94309632  0.02884121     0.30200
H726        H  0.57836621  0.99582332  0.92196085     0.30500
C727        C  0.90227482  0.39813820  0.29973539     0.79700
N728        N  0.91891555  0.39979907  0.32081548    -0.78600
C729        C  0.93386624  0.42291125  0.32464460     0.82100
N730        N  0.93142036  0.44437161  0.30760189    -0.78600
C731        C  0.91493340  0.44324002  0.28664271     0.82200
N732        N  0.90048053  0.42006704  0.28302477    -0.80300
C733        C  0.89010055  0.58465663  0.20694227     0.79700
N734        N  0.89066060  0.56331582  0.22448928    -0.78600
C735        C  0.90633902  0.54039135  0.21977420     0.82100
N736        N  0.92118569  0.53873695  0.19744906    -0.78600
C737        C  0.92108108  0.55963715  0.17976475     0.82200
N738        N  0.90539516  0.58252511  0.18460552    -0.80300
C739        C  0.60367345  0.10158329  0.19975330     0.79700
N740        N  0.60628481  0.08039795  0.21721111    -0.78600
C741        C  0.59236410  0.05677880  0.21383312     0.82100
N742        N  0.57596611  0.05459373  0.19302505    -0.78600
C743        C  0.57322020  0.07537470  0.17531944     0.82200
N744        N  0.58733367  0.09888970  0.17878839    -0.80300
C745        C  0.61664314  0.91752411  0.29422002     0.79700
N746        N  0.60155455  0.91769976  0.31671811    -0.78600
C747        C  0.58562252  0.93990637  0.32301720     0.82100
N748        N  0.58481592  0.96204626  0.30677812    -0.78600
C749        C  0.60005351  0.96269447  0.28454210     0.82200
N750        N  0.61571381  0.94017013  0.27822791    -0.80300
C751        C  0.07051050  0.71312115  0.35552413     0.79700
N752        N  0.06685340  0.68996498  0.37024470    -0.78600
C753        C  0.04330167  0.68653902  0.38465333     0.82100
N754        N  0.02365332  0.70692522  0.38437428    -0.78600
C755        C  0.02706705  0.73020812  0.36992078     0.82200
N756        N  0.05066358  0.73305599  0.35570578    -0.80300
C757        C  0.89904697  0.83088756  0.35290382     0.79700
N758        N  0.92007155  0.81205776  0.35342324    -0.78600
C759        C  0.94546955  0.81852838  0.36178418     0.82100
N760        N  0.94995840  0.84429749  0.36984005    -0.78600
C761        C  0.92921337  0.86347156  0.36962798     0.82200
N762        N  0.90350337  0.85661938  0.36161682    -0.80300
C763        C  0.82338075  0.82541336  0.06764765     0.79700
N764        N  0.80239075  0.83029177  0.05105183    -0.78600
C765        C  0.80286924  0.85182285  0.03412430     0.82100
N766        N  0.82442131  0.86927887  0.03411660    -0.78600
C767        C  0.84542741  0.86498911  0.05098098     0.82200
N768        N  0.84492885  0.84294604  0.06744373    -0.80300
C769        C  0.69499190  0.83697040  0.92496593     0.79700
N770        N  0.67118299  0.85173881  0.92839977    -0.78600
C771        C  0.66777549  0.86826419  0.94902304     0.82100
N772        N  0.68809722  0.86960950  0.96678378    -0.78600
C773        C  0.71173220  0.85442754  0.96388500     0.82200
N774        N  0.71515029  0.83849770  0.94284274    -0.80300
Zr775      Zr  0.73834327  0.78141069  0.28258618     2.17500
O776        O  0.73305059  0.81965752  0.31220574    -0.51900
O777        O  0.71311382  0.76011366  0.31835518    -0.75100
O778        O  0.70186766  0.81599546  0.27770471    -0.81900
O779        O  0.81353528  0.75982163  0.29681916    -0.83600
O780        O  0.67787388  0.80926963  0.24104632    -0.79200
O781        O  0.78049735  0.79214865  0.30577511    -0.90900
O782        O  0.69589626  0.71991620  0.30503135    -0.76800
O783        O  0.70358542  0.75602707  0.26194791    -0.86300
O784        O  0.75245838  0.73421298  0.28621577    -0.86000
O785        O  0.73716872  0.79932885  0.23899063    -0.72800
O786        O  0.78226841  0.77835381  0.26071989    -0.84900
Zr787      Zr  0.76080480  0.72238042  0.19839143     2.26400
Zr788      Zr  0.70296499  0.77289907  0.21824645     2.06300
Zr789      Zr  0.79587089  0.73102435  0.26337771     2.10000
Zr790      Zr  0.71825815  0.70915525  0.26434304     1.78800
O791        O  0.84610842  0.73435516  0.26108684    -0.93700
O792        O  0.66969164  0.69804776  0.25923163    -0.41500
O793        O  0.76193145  0.70479405  0.24216803    -0.78100
O794        O  0.71643009  0.72516542  0.22036109    -0.96800
O795        O  0.74662737  0.76951512  0.19567807    -0.90100
O796        O  0.79534694  0.74771344  0.21947915    -0.93000
C797        C  0.69840637  0.73867958  0.32176283     1.00800
C798        C  0.80475032  0.78131962  0.30853588     1.13700
C799        C  0.68220296  0.82209119  0.26205610     1.04500
O800        O  0.65489299  0.75867628  0.22088127    -0.95100
O801        O  0.69104246  0.75387958  0.17709222    -0.90900
O802        O  0.72315301  0.72095778  0.16697805    -0.84000
C803        C  0.70057548  0.73466444  0.16271432     1.11100
O804        O  0.79066338  0.84005341  0.23340196    -0.97100
Zr805      Zr  0.78087001  0.79467296  0.21712057     1.88900
O806        O  0.78727687  0.74363328  0.16308863    -0.73700
O807        O  0.69438028  0.81213371  0.18939039    -0.53000
O808        O  0.76089299  0.83041437  0.18907379    -0.97700
O809        O  0.83000426  0.80338964  0.22237827    -0.54900
O810        O  0.80114283  0.78558858  0.17552983    -0.74300
C811        C  0.80000134  0.76627845  0.15925061     0.98100
O812        O  0.76047071  0.68027896  0.17367918    -0.63100
O813        O  0.79950695  0.69793741  0.29919525    -0.57900
O814        O  0.79761996  0.68703671  0.20326312    -0.94600
O815        O  0.81839531  0.69272477  0.24179498    -0.93000
O816        O  0.73543908  0.67283177  0.29334042    -0.93300
O817        O  0.71094490  0.66359453  0.24748001    -0.92100
C818        C  0.81578143  0.68017800  0.22037626     1.16900
H819        H  0.75435758  0.72829537  0.30405741     0.32900
H820        H  0.70299230  0.71414470  0.21188275     0.43700
H821        H  0.81322733  0.74491265  0.21127740     0.37200
H822        H  0.73222798  0.81863293  0.23844583     0.33700
H823        H  0.66523209  0.68584274  0.27422862     0.25500
H824        H  0.70495301  0.80800098  0.17332448     0.31500
H825        H  0.77582986  0.83519602  0.17652765     0.37400
H826        H  0.73294652  0.68001015  0.31102828     0.31800
H827        H  0.79796799  0.67980445  0.29110277     0.30700
H828        H  0.85002946  0.74420008  0.24452576     0.32400
H829        H  0.83984282  0.78818760  0.21351752     0.31300
H830        H  0.71753784  0.66477108  0.22925063     0.35300
H831        H  0.74175679  0.67260727  0.17621786     0.28100
H832        H  0.74708736  0.83323335  0.30669159     0.32300
H833        H  0.80054434  0.84978101  0.21910473     0.35200
H834        H  0.81908367  0.69872945  0.30450365     0.27800
H835        H  0.76149942  0.68613243  0.15522119     0.40600
H836        H  0.65552516  0.73880624  0.21723538     0.30700
H837        H  0.65942926  0.71535369  0.26282341     0.38300
H838        H  0.83338480  0.79976986  0.24101092     0.30200
H839        H  0.67469832  0.81068795  0.18461169     0.30200
H840        H  0.73908458  0.81263419  0.32937681     0.30500
C841        C  0.44159015  0.56580322  0.30954825     0.79700
N842        N  0.43791309  0.54625530  0.29153494    -0.78600
C843        C  0.42364890  0.55219215  0.26949982     0.82100
N844        N  0.41249058  0.57781490  0.26591561    -0.78600
C845        C  0.41625984  0.59753281  0.28367756     0.82200
N846        N  0.43064289  0.59127480  0.30534525    -0.80300
C847        C  0.36172412  0.42718803  0.19347655     0.79700
N848        N  0.37057226  0.44645581  0.20996440    -0.78600
C849        C  0.38947284  0.46532428  0.20202003     0.82100
N850        N  0.39924539  0.46483483  0.17718653    -0.78600
C851        C  0.39006106  0.44603763  0.16044396     0.82200
N852        N  0.37137375  0.42731368  0.16868030    -0.80300
Zr853      Zr  0.50171199  0.54967005  0.97716934     2.17500
O854        O  0.49942675  0.58689711  0.94485605    -0.51900
O855        O  0.52558128  0.58379681  0.00206463    -0.75100
O856        O  0.45829285  0.57680944  0.97834377    -0.81900
O857        O  0.56425310  0.51670736  0.94208329    -0.83600
O858        O  0.42702912  0.55462023  0.00410113    -0.79200
O859        O  0.53475533  0.55355273  0.94135661    -0.90900
O860        O  0.53970043  0.56350453  0.03954092    -0.76800
O861        O  0.48697190  0.54016507  0.02060135    -0.86300
O862        O  0.53990368  0.52661198  0.99763088    -0.86000
O863        O  0.46185600  0.52122901  0.97318117    -0.72800
O864        O  0.51119118  0.50851223  0.95361861    -0.84900
Zr865      Zr  0.49371441  0.44591664  0.01416154     2.26400
Zr866      Zr  0.44793559  0.51076284  0.01691380     2.06300
Zr867      Zr  0.54831845  0.48489109  0.97509552     2.10000
Zr868      Zr  0.52491172  0.51641980  0.04057187     1.78800
O869        O  0.56393202  0.45934170  0.93741687    -0.93700
O870        O  0.50391290  0.53537790  0.07970843    -0.41500
O871        O  0.53375027  0.47423365  0.01848869    -0.78100
O872        O  0.48580095  0.48762392  0.03799730    -0.96800
O873        O  0.45603796  0.46932041  0.99341630    -0.90100
O874        O  0.50923638  0.45613932  0.97108948    -0.93000
C875        C  0.53789103  0.58417300  0.02388680     1.00800
C876        C  0.55580067  0.53985017  0.93273721     1.13700
C877        C  0.43430563  0.57484016  0.98935852     1.04500
O878        O  0.43301140  0.53402871  0.05612689    -0.95100
O879        O  0.43007185  0.47827868  0.04889763    -0.90900
O880        O  0.45967278  0.44137401  0.04983068    -0.84000
C881        C  0.43896288  0.45547992  0.05881847     1.11100
O882        O  0.46248719  0.50881014  0.91236044    -0.97100
Zr883      Zr  0.47187979  0.48008733  0.95051067     1.88900
O884        O  0.47687444  0.41122504  0.98406716    -0.73700
O885        O  0.40105663  0.50182371  0.00294601    -0.53000
O886        O  0.42208575  0.48022225  0.94367429    -0.97700
O887        O  0.49302079  0.46291649  0.91064129    -0.54900
O888        O  0.46026606  0.43278233  0.94799338    -0.74300
C889        C  0.46553348  0.41125320  0.96161857     0.98100
O890        O  0.49181171  0.40395256  0.04071480    -0.63100
O891        O  0.59511908  0.49646380  0.98750127    -0.57900
O892        O  0.53930445  0.42347062  0.01933462    -0.94600
O893        O  0.56956208  0.44227315  0.99031583    -0.93000
O894        O  0.57456168  0.51336791  0.04795594    -0.93300
O895        O  0.53584342  0.49200201  0.08084584    -0.92100
C896        C  0.56298794  0.42420113  0.00758942     1.16900
H897        H  0.55635934  0.53761680  0.99709911     0.32900
H898        H  0.48154790  0.48410773  0.05600095     0.43700
H899        H  0.51481364  0.43981832  0.96197392     0.37200
H900        H  0.44719316  0.53040561  0.96372601     0.33700
H901        H  0.49855851  0.55449040  0.07489746     0.25500
H902        H  0.39843953  0.48196635  0.00634341     0.31500
H903        H  0.41480505  0.46639040  0.95619820     0.37400
H904        H  0.57925033  0.49353292  0.04724080     0.31800
H905        H  0.59867786  0.48555385  0.00350696     0.30700
H906        H  0.58440202  0.45935269  0.93819149     0.32400
H907        H  0.50070616  0.44450130  0.91517791     0.31300
H908        H  0.53380937  0.47237366  0.07680755     0.35300
H909        H  0.49934543  0.38918144  0.02960459     0.28100
H910        H  0.49544834  0.60390101  0.95451837     0.32300
H911        H  0.45011838  0.49796084  0.90158933     0.35200
H912        H  0.60731157  0.48788926  0.97425040     0.27800
H913        H  0.50581440  0.40600131  0.05430888     0.40600
H914        H  0.44464201  0.55051862  0.05669629     0.30700
H915        H  0.48609364  0.52584038  0.08198989     0.38300
H916        H  0.50954269  0.47436314  0.90767258     0.30200
H917        H  0.38890783  0.51099924  0.01587412     0.30200
H918        H  0.48259911  0.58375736  0.93468883     0.30500
Zr919      Zr  0.03481484  0.00324948  0.53819175     2.17500
O920        O  0.04786879  0.98593965  0.58107129    -0.51900
O921        O  0.04958253  0.04342843  0.56205501    -0.75100
O922        O  0.07969785  0.97882076  0.53824457    -0.81900
O923        O  0.95691973  0.00101468  0.55455154    -0.83600
O924        O  0.09847896  0.97891063  0.49765681    -0.79200
O925        O  0.99922856  0.98642289  0.56836189    -0.90900
O926        O  0.04302342  0.08101831  0.53630387    -0.76800
O927        O  0.05780140  0.03018675  0.50563832    -0.86300
O928        O  0.00384637  0.04073813  0.52830259    -0.86000
O929        O  0.04197492  0.97282024  0.50228485    -0.72800
O930        O  0.99321523  0.98376995  0.52246738    -0.84900
Zr931      Zr  0.99326528  0.01726350  0.44282503     2.26400
Zr932      Zr  0.06448331  0.00050709  0.46950727     2.06300
Zr933      Zr  0.96294477  0.02123449  0.51165241     2.10000
Zr934      Zr  0.02641195  0.06688750  0.49509572     1.78800
O935        O  0.91764456  0.00140576  0.51981615    -0.93700
O936        O  0.07079387  0.08825343  0.48571190    -0.41500
O937        O  0.98506666  0.04803608  0.47823968    -0.78100
O938        O  0.03433964  0.03840998  0.45862237    -0.96800
O939        O  0.02353206  0.97990261  0.45360511    -0.90100
O940        O  0.96958724  0.99137189  0.47571161    -0.93000
C941        C  0.05023530  0.06947662  0.55769156     1.00800
C942        C  0.97277214  0.98869120  0.57093988     1.13700
C943        C  0.09891763  0.97237366  0.52181061     1.04500
O944        O  0.10694892  0.02663716  0.46660236    -0.95100
O945        O  0.07064671  0.01396110  0.42433571    -0.90900
O946        O  0.02800703  0.02436014  0.40849148    -0.84000
C947        C  0.05447282  0.02192897  0.40606964     1.11100
O948        O  0.00848631  0.91768341  0.51876060    -0.97100
Zr949      Zr  0.00016696  0.95430408  0.48681400     1.88900
O950        O  0.97368113  0.97726207  0.42179353    -0.73700
O951        O  0.08404521  0.96233923  0.44515642    -0.53000
O952        O  0.03051781  0.91871740  0.46899049    -0.97700
O953        O  0.95785588  0.93296966  0.50310325    -0.54900
O954        O  0.97658886  0.94017163  0.44897516    -0.74300
C955        C  0.96951402  0.95187508  0.42768412     0.98100
O956        O  0.98151020  0.03596695  0.40012603    -0.63100
O957        O  0.94731232  0.06241286  0.53406421    -0.57900
O958        O  0.95022346  0.04417956  0.44246162    -0.94600
O959        O  0.92898136  0.03955650  0.48180557    -0.93000
O960        O  0.99524002  0.10415759  0.50804156    -0.93300
O961        O  0.02282696  0.10394035  0.46288591    -0.92100
C962        C  0.92975518  0.04803062  0.45817069     1.16900
H963        H  0.99932514  0.05136747  0.54343178     0.32900
H964        H  0.04261093  0.05052253  0.44583410     0.43700
H965        H  0.95191648  0.98514805  0.46983779     0.37200
H966        H  0.05265827  0.95654662  0.50673658     0.33700
H967        H  0.08319425  0.08156898  0.49965561     0.25500
H968        H  0.10426469  0.96535859  0.44482241     0.31500
H969        H  0.03202310  0.92326754  0.45026256     0.37400
H970        H  0.97671794  0.09857304  0.50239064     0.31800
H971        H  0.92760390  0.06486963  0.52940151     0.30700
H972        H  0.90709788  0.01554285  0.52956517     0.32400
H973        H  0.94290126  0.94044560  0.49196919     0.31300
H974        H  0.01606986  0.09510590  0.44715050     0.35300
H975        H  0.96255330  0.02975839  0.39657931     0.28100
H976        H  0.06597838  0.99415863  0.58465561     0.32300
H977        H  0.00215608  0.90069272  0.51068543     0.35200
H978        H  0.94677564  0.05696772  0.55263401     0.27800
H979        H  0.97981097  0.05609508  0.40201272     0.40600
H980        H  0.12056029  0.01427149  0.45799217     0.30700
H981        H  0.07796907  0.07909352  0.46998483     0.38300
H982        H  0.95424099  0.94138975  0.52013793     0.30200
H983        H  0.08157056  0.94605703  0.45666764     0.30200
H984        H  0.05197035  0.96610296  0.57909292     0.30500
C985        C  0.32482498  0.84004080  0.41139215     0.79700
N986        N  0.30433296  0.84034775  0.42971317    -0.78600
C987        C  0.30374410  0.85969364  0.44817571     0.82100
N988        N  0.32326993  0.87924332  0.44782126    -0.78600
C989        C  0.34366386  0.87953557  0.42948940     0.82200
N990        N  0.34432399  0.85988281  0.41121159    -0.80300
C991        C  0.20436127  0.85349323  0.57033270     0.79700
N992        N  0.18398111  0.87326591  0.56836528    -0.78600
C993        C  0.18117214  0.88854825  0.54604222     0.82100
N994        N  0.19893364  0.88401608  0.52590352    -0.78600
C995        C  0.21901360  0.86443039  0.52757715     0.82200
N996        N  0.22174365  0.84958671  0.54978578    -0.80300
C997        C  0.44905121  0.32734087  0.88717639     0.79700
N998        N  0.46663634  0.30527172  0.88552179    -0.78600
C999        C  0.46554867  0.28809935  0.86521866     0.82100
N1000       N  0.44671569  0.29304610  0.84643945    -0.78600
C1001       C  0.42938917  0.31519827  0.84729228     0.82200
N1002       N  0.43048817  0.33215605  0.86787422    -0.80300
C1003       C  0.54904786  0.14639105  0.85771249     0.79700
N1004       N  0.57093746  0.14968002  0.84108802    -0.78600
C1005       C  0.57464295  0.17425235  0.82855471     0.82100
N1006       N  0.55704025  0.19552823  0.83373245    -0.78600
C1007       C  0.53528526  0.19233595  0.85030799     0.82200
N1008       N  0.53134709  0.16772973  0.86226765    -0.80300
C1009       C  0.06627130  0.15450050  0.63127382     0.79700
N1010       N  0.04684244  0.17479260  0.62814935    -0.78600
C1011       C  0.04791654  0.19798626  0.64214084     0.82100
N1012       N  0.06836110  0.20061830  0.65951922    -0.78600
C1013       C  0.08768872  0.18039293  0.66311642     0.82200
N1014       N  0.08690608  0.15744129  0.64857143    -0.80300
C1015       C  0.95375125  0.32918118  0.61021765     0.79700
N1016       N  0.93166494  0.33032024  0.62697012    -0.78600
C1017       C  0.92708136  0.30942983  0.64428295     0.82100
N1018       N  0.94496414  0.28762827  0.64500650    -0.78600
C1019       C  0.96697278  0.28611158  0.62846832     0.82200
N1020       N  0.97149867  0.30717483  0.61132692    -0.80300
C1021       C  0.68712713  0.33005940  0.06621770     0.79700
N1022       N  0.70821160  0.33442812  0.04884568    -0.78600
C1023       C  0.70433713  0.34967542  0.02686241     0.82100
N1024       N  0.67881002  0.36058820  0.02239214    -0.78600
C1025       C  0.65723966  0.35675728  0.03916545     0.82200
N1026       N  0.66148103  0.34139355  0.06128072    -0.80300
C1027       C  0.83414100  0.38800505  0.93672810     0.79700
N1028       N  0.81430229  0.38303372  0.95511258    -0.78600
C1029       C  0.78946350  0.37275761  0.94879396     0.82100
N1030       N  0.78430042  0.36724321  0.92370630    -0.78600
C1031       C  0.80374008  0.37204855  0.90491161     0.82200
N1032       N  0.82865632  0.38221166  0.91162131    -0.80300
Zr1033     Zr  0.74202743  0.19641358  0.74983775     2.17500
O1034       O  0.73483059  0.14917013  0.76455748    -0.51900
O1035       O  0.73270941  0.17342412  0.70917769    -0.75100
O1036       O  0.69455771  0.18929335  0.76655446    -0.81900
O1037       O  0.82071234  0.18729586  0.75903962    -0.83600
O1038       O  0.67077226  0.22986649  0.76383226    -0.79200
O1039       O  0.77985545  0.16515099  0.76335933    -0.90900
O1040       O  0.74217719  0.20268563  0.67554429    -0.76800
O1041       O  0.71931070  0.22921375  0.72213033    -0.86300
O1042       O  0.77630639  0.21283384  0.71979784    -0.86000
O1043       O  0.72548099  0.23198332  0.77839762    -0.72800
O1044       O  0.77737681  0.21671701  0.77511077    -0.84900
Zr1045     Zr  0.77149018  0.30319631  0.74475297     2.26400
Zr1046     Zr  0.70312872  0.26494074  0.75005340     2.06300
Zr1047     Zr  0.81089388  0.23402862  0.74484717     2.10000
Zr1048     Zr  0.75376745  0.24618842  0.69279151     1.78800
O1049       O  0.84853808  0.23702744  0.77540433    -0.93700
O1050       O  0.71328708  0.25651091  0.66653915    -0.41500
O1051       O  0.78854122  0.26719597  0.71736105    -0.78100
O1052       O  0.73632333  0.28233487  0.71913478    -0.96800
O1053       O  0.73784983  0.28625310  0.77503069    -0.90100
O1054       O  0.79492710  0.27040652  0.77207267    -0.93000
C1055       C  0.73498852  0.17939613  0.68490890     1.00800
C1056       C  0.80639984  0.16614269  0.76504684     1.13700
C1057       C  0.67243150  0.20412988  0.76959989     1.04500
O1058       O  0.66464068  0.26326341  0.72020532    -0.95100
O1059       O  0.69212486  0.31215242  0.73811159    -0.90900
O1060       O  0.73265808  0.33493479  0.73394328    -0.84000
C1061       C  0.70600602  0.33382916  0.73289635     1.11100
O1062       O  0.75416010  0.21857748  0.83601473    -0.97100
Zr1063     Zr  0.76106103  0.25317568  0.80188121     1.88900
O1064       O  0.78336136  0.32534616  0.78566699    -0.73700
O1065       O  0.67539014  0.28635944  0.78411134    -0.53000
O1066       O  0.72234270  0.26523271  0.83052791    -0.97700
O1067       O  0.80218084  0.24233524  0.82720901    -0.54900
O1068       O  0.77310401  0.29644935  0.81941600    -0.74300
C1069       C  0.78132732  0.31937463  0.81003348     0.98100
O1070       O  0.78241876  0.35050356  0.73277162    -0.63100
O1071       O  0.84047207  0.21406580  0.71117185    -0.57900
O1072       O  0.81569961  0.30717321  0.72015785    -0.94600
O1073       O  0.84136151  0.26815705  0.72658507    -0.93000
O1074       O  0.79019193  0.23448089  0.66159952    -0.93300
O1075       O  0.76358437  0.28257580  0.66113009    -0.92100
C1076       C  0.83814201  0.29262707  0.71750482     1.16900
H1077       H  0.78429790  0.19799004  0.70984163     0.32900
H1078       H  0.72810298  0.29507305  0.70683022     0.43700
H1079       H  0.81031468  0.27848824  0.78061544     0.37200
H1080       H  0.71316371  0.22527713  0.79183339     0.33700
H1081       H  0.71800090  0.24891001  0.64935814     0.25500
H1082       H  0.65693540  0.28948357  0.77638450     0.31500
H1083       H  0.71762022  0.28457451  0.82598967     0.37400
H1084       H  0.80750749  0.23475284  0.67157536     0.31800
H1085       H  0.85927895  0.21349734  0.71854197     0.30700
H1086       H  0.86489329  0.22922800  0.76618137     0.32400
H1087       H  0.81532814  0.25716486  0.82306258     0.31300
H1088       H  0.77914526  0.29264244  0.66850617     0.35300
H1089       H  0.80088161  0.35381362  0.74005278     0.28100
H1090       H  0.71746149  0.14331362  0.75655381     0.32300
H1091       H  0.75610695  0.22834932  0.85249333     0.35200
H1092       H  0.83521751  0.19457749  0.71029585     0.27800
H1093       H  0.78536279  0.35075629  0.71375735     0.40600
H1094       H  0.66795214  0.27817060  0.70729084     0.30700
H1095       H  0.69871957  0.24433812  0.67364138     0.38300
H1096       H  0.81052867  0.22593579  0.81896283     0.30200
H1097       H  0.67251575  0.27166282  0.79733296     0.30200
H1098       H  0.73059095  0.15024908  0.78331815     0.30500
C1099       C  0.09020435  0.80578454  0.86891979     0.79700
N1100       N  0.08446780  0.83238591  0.87512607    -0.78600
C1101       C  0.05867661  0.83995930  0.88374074     0.82100
N1102       N  0.03867146  0.82081702  0.88592742    -0.78600
C1103       C  0.04394687  0.79438829  0.87962465     0.82200
N1104       N  0.06972622  0.78714293  0.87111954    -0.80300
C1105       C  0.94931804  0.66163055  0.88772559     0.79700
N1106       N  0.92366162  0.66844940  0.87880696    -0.78600
C1107       C  0.91712874  0.69506280  0.87256334     0.82100
N1108       N  0.93652641  0.71456822  0.87536544    -0.78600
C1109       C  0.96220830  0.70814270  0.88414375     0.82200
N1110       N  0.96826672  0.68160304  0.89023297    -0.80300
C1111       C  0.91077313  0.05225565  0.82018778     0.79700
N1112       N  0.89175931  0.07259528  0.81509302    -0.78600
C1113       C  0.87457579  0.07130306  0.79442595     0.82100
N1114       N  0.87700741  0.04947334  0.77865192    -0.78600
C1115       C  0.89593882  0.02916880  0.78327720     0.82200
N1116       N  0.91258324  0.03063610  0.80402944    -0.80300
C1117       C  0.91823430  0.94235560  0.66115046     0.79700
N1118       N  0.90653217  0.91722465  0.66112004    -0.78600
C1119       C  0.89326029  0.90765764  0.68275154     0.82100
N1120       N  0.89144052  0.92324766  0.70420647    -0.78600
C1121       C  0.90331295  0.94820101  0.70427900     0.82200
N1122       N  0.91678989  0.95754772  0.68279978    -0.80300
Zr1123     Zr  0.75656905  0.73321754  0.79245881     2.17500
O1124       O  0.75208116  0.70112870  0.82915658    -0.51900
O1125       O  0.73733985  0.76129987  0.82717510    -0.75100
O1126       O  0.79988579  0.72514082  0.81516267    -0.81900
O1127       O  0.69045876  0.70581688  0.76290566    -0.83600
O1128       O  0.83170567  0.75439503  0.79809575    -0.79200
O1129       O  0.72259891  0.69706026  0.79385358    -0.90900
O1130       O  0.72975498  0.80462085  0.81178742    -0.76800
O1131       O  0.77536225  0.77771893  0.78592327    -0.86300
O1132       O  0.72054776  0.76111401  0.77409779    -0.86000
O1133       O  0.79564694  0.72581572  0.76367808    -0.72800
O1134       O  0.74515362  0.71191344  0.75262304    -0.84900
Zr1135     Zr  0.76698833  0.77906986  0.69793056     2.26400
Zr1136     Zr  0.81372324  0.77078295  0.75674385     2.06300
Zr1137     Zr  0.70967675  0.74040564  0.73414446     2.10000
Zr1138     Zr  0.73977690  0.80523448  0.76634129     1.78800
O1139       O  0.68867825  0.70396852  0.71003749    -0.93700
O1140       O  0.76604757  0.84339592  0.78233007    -0.41500
O1141       O  0.72775415  0.78512747  0.72646285    -0.78100
O1142       O  0.77871997  0.80029206  0.73788656    -0.96800
O1143       O  0.80282021  0.75086083  0.71623472    -0.90100
O1144       O  0.74778320  0.73469144  0.70459473    -0.93000
C1145       C  0.72955604  0.78639220  0.82988576     1.00800
C1146       C  0.70004346  0.69203467  0.78223019     1.13700
C1147       C  0.82381533  0.73611546  0.81471088     1.04500
O1148       O  0.83756054  0.80761926  0.77779466    -0.95100
O1149       O  0.83565949  0.80204376  0.72640677    -0.90900
O1150       O  0.80847620  0.80645703  0.69104176    -0.84000
C1151       C  0.83008538  0.81217681  0.70398998     1.11100
O1152       O  0.79325163  0.66245705  0.74404156    -0.97100
Zr1153     Zr  0.78346290  0.70681201  0.72314804     1.88900
O1154       O  0.78357947  0.75187694  0.66161388    -0.73700
O1155       O  0.85713058  0.74727465  0.74573260    -0.53000
O1156       O  0.83261870  0.69501119  0.71943829    -0.97700
O1157       O  0.75740346  0.66878853  0.70638949    -0.54900
O1158       O  0.79303500  0.70894889  0.67714049    -0.74300
C1159       C  0.79152132  0.72683758  0.65868647     0.98100
O1160       O  0.75959112  0.81934909  0.66984729    -0.63100
O1161       O  0.66487971  0.76024552  0.74662811    -0.57900
O1162       O  0.72401408  0.78497581  0.67396020    -0.94600
O1163       O  0.69113905  0.75918831  0.69446344    -0.93000
O1164       O  0.69162700  0.82043213  0.77122796    -0.93300
O1165       O  0.72825897  0.84768529  0.74291832    -0.92100
C1166       C  0.69949710  0.77526651  0.67618954     1.16900
H1167       H  0.70446366  0.76179513  0.78539822     0.32900
H1168       H  0.78562070  0.81854407  0.73469495     0.43700
H1169       H  0.74142023  0.72726509  0.68857582     0.37200
H1170       H  0.80938242  0.71340530  0.77091387     0.33700
H1171       H  0.75211614  0.85515645  0.79125516     0.25500
H1172       H  0.87145326  0.75768104  0.75464925     0.31500
H1173       H  0.83519150  0.68739082  0.70193201     0.37400
H1174       H  0.68300063  0.80714628  0.78350184     0.31800
H1175       H  0.66548548  0.77950066  0.74018480     0.30700
H1176       H  0.66847397  0.70669318  0.71270046     0.32400
H1177       H  0.76386435  0.66661572  0.68825876     0.31300
H1178       H  0.73511566  0.84464442  0.72502475     0.35300
H1179       H  0.76502414  0.83530350  0.68007312     0.28100
H1180       H  0.75893302  0.71080429  0.84437743     0.32300
H1181       H  0.80266769  0.65120901  0.73067244     0.35200
H1182       H  0.65142547  0.75141512  0.73533186     0.27800
H1183       H  0.77362788  0.81797934  0.65573404     0.40600
H1184       H  0.82433083  0.81418919  0.79121501     0.30700
H1185       H  0.77730079  0.83529478  0.79649528     0.38300
H1186       H  0.73817459  0.67595034  0.70495408     0.30200
H1187       H  0.85644740  0.72949044  0.75530439     0.30200
H1188       H  0.76590444  0.68624958  0.82601960     0.30500
Zr1189     Zr  0.02697825  0.49848461  0.04627111     2.17500
O1190       O  0.06280830  0.49143825  0.07860862    -0.51900
O1191       O  0.99848485  0.51889236  0.08064314    -0.75100
O1192       O  0.05791796  0.53728363  0.05151041    -0.81900
O1193       O  0.00625956  0.42336277  0.04945439    -0.83600
O1194       O  0.05167414  0.56772939  0.01817841    -0.79200
O1195       O  0.03009054  0.45510160  0.07094561    -0.90900
O1196       O  0.95650686  0.53040556  0.06442619    -0.76800
O1197       O  0.00103745  0.53514908  0.02670515    -0.86300
O1198       O  0.98181282  0.48118333  0.03943723    -0.86000
O1199       O  0.05153229  0.50900101  0.00648674    -0.72800
O1200       O  0.03299085  0.45996037  0.01809226    -0.84900
Zr1201     Zr  0.98520788  0.49183357  0.95065189     2.26400
Zr1202     Zr  0.02459568  0.54517054  0.98655112     2.06300
Zr1203     Zr  0.98751693  0.44386345  0.01018981     2.10000
Zr1204     Zr  0.95616979  0.51774602  0.01964290     1.78800
O1205       O  0.00379785  0.39889835  0.99601008    -0.93700
O1206       O  0.94172881  0.56590634  0.01980720    -0.41500
O1207       O  0.96149592  0.48052742  0.99061769    -0.78100
O1208       O  0.97850723  0.52980874  0.97962151    -0.96800
O1209       O  0.03066159  0.50791468  0.95760302    -0.90100
O1210       O  0.01062137  0.45435171  0.96990821    -0.93000
C1211       C  0.97382658  0.52899100  0.08292060     1.00800
C1212       C  0.02114566  0.43060860  0.06842826     1.13700
C1213       C  0.06266565  0.56015236  0.03956264     1.04500
O1214       O  0.01100968  0.59321107  0.99085586    -0.95100
O1215       O  0.00783329  0.56672188  0.94726989    -0.90900
O1216       O  0.97957212  0.53636913  0.92857477    -0.84000
C1217       C  0.99031371  0.56015162  0.93023571     1.11100
O1218       O  0.09642368  0.45432271  0.00121950    -0.97100
Zr1219     Zr  0.05576577  0.47106760  0.97786542     1.88900
O1220       O  0.01631410  0.47736724  0.91507273    -0.73700
O1221       O  0.06716762  0.55611758  0.96294873    -0.53000
O1222       O  0.09730359  0.49641686  0.96608101    -0.97700
O1223       O  0.06658734  0.42273878  0.97037769    -0.54900
O1224       O  0.05879107  0.46777734  0.93138196    -0.74300
C1225       C  0.04210314  0.47063841  0.91245053     0.98100
O1226       O  0.95162654  0.49206357  0.91588067    -0.63100
O1227       O  0.94966645  0.42285300  0.03478880    -0.57900
O1228       O  0.94866559  0.45788775  0.94720689    -0.94600
O1229       O  0.94998568  0.43009208  0.98299442    -0.93000
O1230       O  0.91817168  0.49254135  0.03975324    -0.93300
O1231       O  0.91218199  0.52587494  0.99813115    -0.92100
C1232       C  0.93930637  0.43805595  0.96143740     1.16900
H1233       H  0.97327176  0.47520894  0.05556053     0.32900
H1234       H  0.96687214  0.54434695  0.97260543     0.43700
H1235       H  0.01106253  0.43878109  0.95864284     0.37200
H1236       H  0.07005845  0.51502352  0.00983596     0.33700
H1237       H  0.92559379  0.56658095  0.03186134     0.25500
H1238       H  0.06589686  0.57619512  0.95972837     0.31500
H1239       H  0.10570289  0.48649219  0.95129718     0.37400
H1240       H  0.91950452  0.47409092  0.03211875     0.31800
H1241       H  0.95555008  0.40344460  0.03743320     0.30700
H1242       H  0.01076568  0.38932710  0.01175513     0.32400
H1243       H  0.05599816  0.41781491  0.95494837     0.31300
H1244       H  0.91675278  0.52477398  0.97942626     0.35300
H1245       H  0.93780600  0.50663738  0.92008164     0.28100
H1246       H  0.06046986  0.50649094  0.09109040     0.32300
H1247       H  0.10967336  0.44763610  0.98784190     0.35200
H1248       H  0.95023999  0.43084962  0.05222778     0.27800
H1249       H  0.96150050  0.49882843  0.90013760     0.40600
H1250       H  0.99408006  0.59289798  0.00188035     0.30700
H1251       H  0.95653387  0.57519512  0.02912589     0.38300
H1252       H  0.05749745  0.41275699  0.98496399     0.30200
H1253       H  0.08207247  0.55370335  0.97577975     0.30200
H1254       H  0.08077082  0.49466845  0.06964661     0.30500
C1255       C  0.40713291  0.06047558  0.67318383     0.79700
N1256       N  0.39099493  0.08238737  0.68002701    -0.78600
C1257       C  0.37774218  0.08274451  0.70347256     0.82100
N1258       N  0.38054041  0.06066502  0.71976604    -0.78600
C1259       C  0.39669839  0.03872853  0.71322195     0.82200
N1260       N  0.40999025  0.03877965  0.68990036    -0.80300
C1261       C  0.42642882  0.92704576  0.82248169     0.79700
N1262       N  0.42526407  0.94697908  0.80374931    -0.78600
C1263       C  0.40748493  0.94543001  0.78376316     0.82100
N1264       N  0.39005760  0.92391021  0.78286047    -0.78600
C1265       C  0.39079498  0.90387454  0.80154516     0.82200
N1266       N  0.40917015  0.90550060  0.82102844    -0.80300
C1267       C  0.15351944  0.62988096  0.06023216     0.79700
N1268       N  0.17425015  0.62925397  0.04215721    -0.78600
C1269       C  0.19654404  0.64553270  0.04429905     0.82100
N1270       N  0.19797275  0.66218947  0.06488863    -0.78600
C1271       C  0.17734442  0.66322773  0.08291331     0.82200
N1272       N  0.15511488  0.64682885  0.08066873    -0.80300
C1273       C  0.30648027  0.66112392  0.93167901     0.79700
N1274       N  0.28564383  0.65865458  0.94935317    -0.78600
C1275       C  0.29031214  0.64712575  0.97298198     0.82100
N1276       N  0.31613303  0.63749984  0.97868027    -0.78600
C1277       C  0.33741293  0.63966625  0.96116040     0.82200
N1278       N  0.33240261  0.65187673  0.93768239    -0.80300
Zr1279     Zr  0.26089872  0.77243673  0.79762362     2.17500
O1280       O  0.26334909  0.80125589  0.83557928    -0.51900
O1281       O  0.27586412  0.74021962  0.83187005    -0.75100
O1282       O  0.21502739  0.78087860  0.81787261    -0.81900
O1283       O  0.33217601  0.79553452  0.77212442    -0.83600
O1284       O  0.18277647  0.75729887  0.79607566    -0.79200
O1285       O  0.29729319  0.80697648  0.80016884    -0.90900
O1286       O  0.28064074  0.69773250  0.81504339    -0.76800
O1287       O  0.23963734  0.73016573  0.78762833    -0.86300
O1288       O  0.29653076  0.74362832  0.77950945    -0.86000
O1289       O  0.22489564  0.78414646  0.76721628    -0.72800
O1290       O  0.27787635  0.79566214  0.75940861    -0.84900
Zr1291     Zr  0.25539201  0.73608054  0.70006391     2.26400
Zr1292     Zr  0.20453980  0.74130098  0.75657995     2.06300
Zr1293     Zr  0.31232361  0.76623083  0.74051292     2.10000
Zr1294     Zr  0.27508260  0.70188907  0.76898598     1.78800
O1295       O  0.33175543  0.80477359  0.71603321    -0.93700
O1296       O  0.24596903  0.66376217  0.78265568    -0.41500
O1297       O  0.29137089  0.72390020  0.73006879    -0.78100
O1298       O  0.23960047  0.71181025  0.73846606    -0.96800
O1299       O  0.22038540  0.76514906  0.71843003    -0.90100
O1300       O  0.27723622  0.77809981  0.70982331    -0.93000
C1301       C  0.28093360  0.71428982  0.83388356     1.00800
C1302       C  0.32177224  0.81006857  0.79032826     1.13700
C1303       C  0.19015731  0.77266029  0.81448605     1.04500
O1304       O  0.18096646  0.70314838  0.77794168    -0.95100
O1305       O  0.18390754  0.71324342  0.72377617    -0.90900
O1306       O  0.21561938  0.70744793  0.69128728    -0.84000
C1307       C  0.19208487  0.70266757  0.70233402     1.11100
O1308       O  0.23883433  0.84865028  0.75421049    -0.97100
Zr1309     Zr  0.24240223  0.80670779  0.72927523     1.88900
O1310       O  0.24139746  0.76935591  0.66637463    -0.73700
O1311       O  0.16174867  0.76489385  0.74402677    -0.53000
O1312       O  0.19545188  0.82591276  0.72887593    -0.97700
O1313       O  0.27167331  0.84331189  0.71216820    -0.54900
O1314       O  0.23085897  0.81038788  0.68449519    -0.74300
C1315       C  0.23283979  0.79448635  0.66519501     0.98100
O1316       O  0.25405124  0.70291934  0.66534041    -0.63100
O1317       O  0.35811434  0.74782928  0.75118219    -0.57900
O1318       O  0.30057534  0.72700884  0.67921275    -0.94600
O1319       O  0.33450383  0.74345215  0.70435710    -0.93000
O1320       O  0.32335325  0.68702391  0.77211902    -0.93300
O1321       O  0.28393614  0.65854846  0.74748992    -0.92100
C1322       C  0.32610970  0.73093112  0.68446317     1.16900
H1323       H  0.31159152  0.74065631  0.79139485     0.32900
H1324       H  0.23226209  0.69412506  0.73449787     0.43700
H1325       H  0.28518012  0.78649724  0.69440336     0.37200
H1326       H  0.21125655  0.79686905  0.77403483     0.33700
H1327       H  0.25641220  0.65394966  0.79646647     0.25500
H1328       H  0.14692966  0.75495277  0.75353552     0.31500
H1329       H  0.18511143  0.81386174  0.71740588     0.37400
H1330       H  0.32385221  0.67440523  0.78737495     0.31800
H1331       H  0.37081917  0.76329570  0.74798687     0.30700
H1332       H  0.34629879  0.79659642  0.70472674     0.32400
H1333       H  0.27929586  0.83655266  0.69553677     0.31300
H1334       H  0.28721907  0.66379797  0.72909738     0.35300
H1335       H  0.26096678  0.71265411  0.64958533     0.28100
H1336       H  0.25468849  0.79060765  0.84997998     0.32300
H1337       H  0.23100448  0.86286421  0.74231630     0.35200
H1338       H  0.35784031  0.74505658  0.77021897     0.27800
H1339       H  0.26834342  0.68870046  0.66938624     0.40600
H1340       H  0.16099834  0.70779362  0.77647148     0.30700
H1341       H  0.23003325  0.67245211  0.79180594     0.38300
H1342       H  0.28775617  0.84329725  0.72382371     0.30200
H1343       H  0.16235525  0.78293273  0.75245223     0.30200
H1344       H  0.25041300  0.81689871  0.83226418     0.30500
C1345       C  0.31470171  0.69780475  0.89860645    -0.20800
C1346       C  0.30058804  0.67400339  0.90622811    -0.07400
C1347       C  0.28003526  0.66367118  0.89006692     0.13500
C1348       C  0.27371349  0.67775158  0.86692769    -0.20900
C1349       C  0.28733469  0.70193029  0.85950656    -0.07400
C1350       C  0.30831319  0.71194732  0.87538555     0.13500
C1351       C  0.32471227  0.73680720  0.86743393    -0.24200
H1352       H  0.33054597  0.70551650  0.91103599     0.14700
H1353       H  0.25806637  0.66976694  0.85442101     0.14800
C1354       C  0.26540304  0.63729874  0.89665647    -0.24200
H1355       H  0.34106419  0.74109046  0.88160528     0.05000
H1356       H  0.31081309  0.75514741  0.86612652     0.08200
H1357       H  0.33492461  0.73340799  0.84832613     0.08200
H1358       H  0.25287708  0.63956282  0.91467194     0.08200
H1359       H  0.28087044  0.62037146  0.89930019     0.08200
H1360       H  0.25116455  0.63146326  0.88109080     0.05000
C1361       C  0.24059591  0.63921753  0.98259681    -0.20800
C1362       C  0.26702658  0.64494818  0.99190707    -0.07400
C1363       C  0.27008284  0.65024355  0.01849425     0.13500
C1364       C  0.24671226  0.64977380  0.03490545    -0.20900
C1365       C  0.22021450  0.64419943  0.02564154    -0.07400
C1366       C  0.21716979  0.63866170  0.99904319     0.13500
C1367       C  0.18937182  0.63314330  0.98751043    -0.24200
H1368       H  0.23822363  0.63524992  0.96219632     0.14700
H1369       H  0.24922513  0.65392928  0.05525640     0.14800
C1370       C  0.29757209  0.65755028  0.02965942    -0.24200
H1371       H  0.19082008  0.63099196  0.96616581     0.05000
H1372       H  0.17472493  0.65039532  0.99161565     0.08200
H1373       H  0.18104221  0.61368715  0.99567180     0.08200
H1374       H  0.30623980  0.67551081  0.01896656     0.08200
H1375       H  0.31213842  0.63977583  0.02840402     0.08200
H1376       H  0.29562087  0.66294845  0.05040159     0.05000
C1377       C  0.38283110  0.85398146  0.80650314    -0.20800
C1378       C  0.37188137  0.88030817  0.80100768    -0.07400
C1379       C  0.34331059  0.88343204  0.79568106     0.13500
C1380       C  0.32684363  0.86000886  0.79470601    -0.20900
C1381       C  0.33834326  0.83357911  0.79817837    -0.07400
C1382       C  0.36657637  0.83053850  0.80466818     0.13500
C1383       C  0.37967863  0.80263867  0.80955396    -0.24200
H1384       H  0.40456367  0.85163925  0.81118384     0.14700
H1385       H  0.30520346  0.86224022  0.78963535     0.14800
C1386       C  0.32996018  0.91128140  0.79115365    -0.24200
H1387       H  0.40147627  0.80418376  0.81584821     0.05000
H1388       H  0.37981047  0.79052415  0.79162192     0.08200
H1389       H  0.36791022  0.79155518  0.82502063     0.08200
H1390       H  0.33843636  0.92092009  0.77315270     0.08200
H1391       H  0.33381726  0.92460469  0.80785064     0.08200
H1392       H  0.30719280  0.90989321  0.78891339     0.05000
C1393       C  0.40041081  0.98834780  0.72155026    -0.20800
C1394       C  0.40007074  0.01503420  0.73140825    -0.07400
C1395       C  0.40358237  0.01853286  0.75827516     0.13500
C1396       C  0.40614218  0.99534321  0.77459975    -0.20900
C1397       C  0.40530002  0.96867582  0.76495300    -0.07400
C1398       C  0.40290250  0.96509433  0.73798960     0.13500
C1399       C  0.40391341  0.93698035  0.72635606    -0.24200
H1400       H  0.39834599  0.98566777  0.70089525     0.14700
H1401       H  0.40846069  0.99808381  0.79522054     0.14800
C1402       C  0.40571164  0.04655213  0.76989014    -0.24200
H1403       H  0.40351709  0.93813371  0.70486861     0.05000
H1404       H  0.38575954  0.92501140  0.73306435     0.08200
H1405       H  0.42328689  0.92600401  0.73209966     0.08200
H1406       H  0.38568804  0.05791930  0.76829395     0.08200
H1407       H  0.42232946  0.05825524  0.75978521     0.08200
H1408       H  0.41082724  0.04520700  0.79076890     0.05000
C1409       C  0.11055115  0.56631954  0.05358580    -0.20800
C1410       C  0.08419815  0.57801796  0.04949842    -0.07400
C1411       C  0.08032150  0.60678672  0.05114733     0.13500
C1412       C  0.10319747  0.62320225  0.05592919    -0.20900
C1413       C  0.12984108  0.61158950  0.05802927    -0.07400
C1414       C  0.13356412  0.58281771  0.05729574     0.13500
C1415       C  0.16179050  0.56947794  0.06017495    -0.24200
H1416       H  0.11346481  0.54428387  0.05217718     0.14700
H1417       H  0.10051342  0.64529951  0.05683967     0.14800
C1418       C  0.05221013  0.62024320  0.04782760    -0.24200
H1419       H  0.16071298  0.54673330  0.06030006     0.05000
H1420       H  0.17104177  0.57566365  0.07866152     0.08200
H1421       H  0.17551635  0.57575988  0.04376432     0.08200
H1422       H  0.03720370  0.61102285  0.06182835     0.08200
H1423       H  0.04487126  0.61755663  0.02783220     0.08200
H1424       H  0.05274571  0.64264743  0.05127284     0.05000
C1425       C  0.89199351  0.85826298  0.69353619    -0.20800
C1426       C  0.87889030  0.88149775  0.68272092    -0.07400
C1427       C  0.85102074  0.88042701  0.67531778     0.13500
C1428       C  0.83608268  0.85658479  0.68078343    -0.20900
C1429       C  0.84844335  0.83390269  0.69363054    -0.07400
C1430       C  0.87716721  0.83428654  0.69896985     0.13500
C1431       C  0.89238363  0.80969467  0.71036398    -0.24200
H1432       H  0.91359009  0.85932382  0.69879682     0.14700
H1433       H  0.81421602  0.85636360  0.67641885     0.14800
C1434       C  0.83682137  0.90485954  0.66260977    -0.24200
H1435       H  0.91509247  0.81288925  0.71060753     0.05000
H1436       H  0.88862201  0.79136541  0.69858447     0.08200
H1437       H  0.88555000  0.80578661  0.73066550     0.08200
H1438       H  0.84775035  0.91020358  0.64416994     0.08200
H1439       H  0.83713291  0.92271083  0.67560586     0.08200
H1440       H  0.81489788  0.90063117  0.65817170     0.05000
C1441       C  0.87422246  0.99409092  0.75669304    -0.20800
C1442       C  0.89854322  0.00601108  0.76539779    -0.07400
C1443       C  0.92451912  0.99697799  0.75541377     0.13500
C1444       C  0.92534389  0.97725796  0.73607232    -0.20900
C1445       C  0.90103288  0.96586709  0.72696077    -0.07400
C1446       C  0.87515079  0.97386663  0.73774948     0.13500
C1447       C  0.84845582  0.96221955  0.72846137    -0.24200
H1448       H  0.85436639  0.00098459  0.76447615     0.14700
H1449       H  0.94509919  0.97098489  0.72762062     0.14800
C1450       C  0.95137175  0.00883638  0.76405946    -0.24200
H1451       H  0.83012944  0.97155222  0.73839164     0.05000
H1452       H  0.84819430  0.93976434  0.73245472     0.08200
H1453       H  0.84642894  0.96623084  0.70733561     0.08200
H1454       H  0.95469483  0.00349934  0.78474678     0.08200
H1455       H  0.95088419  0.03148253  0.76124191     0.08200
H1456       H  0.96941974  0.00053623  0.75294527     0.05000
C1457       C  0.98577193  0.62536320  0.89004157    -0.20800
C1458       C  0.95774953  0.63282874  0.89407454    -0.07400
C1459       C  0.93987614  0.61372727  0.90642374     0.13500
C1460       C  0.95091268  0.58861828  0.91569155    -0.20900
C1461       C  0.97936003  0.58259928  0.91378327    -0.07400
C1462       C  0.99692466  0.60079127  0.90020742     0.13500
C1463       C  0.02745137  0.59456240  0.89676018    -0.24200
H1464       H  0.99938975  0.63940595  0.87982904     0.14700
H1465       H  0.93762132  0.57451725  0.92633727     0.14800
C1466       C  0.90972055  0.62016518  0.91162014    -0.24200
H1467       H  0.03783862  0.61047802  0.88457895     0.05000
H1468       H  0.03042674  0.57450201  0.88720658     0.08200
H1469       H  0.03777604  0.59382614  0.91579296     0.08200
H1470       H  0.89874672  0.62255323  0.89307448     0.08200
H1471       H  0.90750327  0.63926814  0.92286366     0.08200
H1472       H  0.89947791  0.60345525  0.92290462     0.05000
C1473       C  0.88074641  0.73072191  0.86430242    -0.20800
C1474       C  0.89005421  0.70338694  0.86105812    -0.07400
C1475       C  0.87507342  0.68629633  0.84455908     0.13500
C1476       C  0.85234249  0.69736586  0.83102500    -0.20900
C1477       C  0.84457151  0.72508605  0.83294164    -0.07400
C1478       C  0.85838530  0.74181811  0.85027827     0.13500
C1479       C  0.84954729  0.77129793  0.85400206    -0.24200
H1480       H  0.89165941  0.74385401  0.87723758     0.14700
H1481       H  0.84144729  0.68466026  0.81768239     0.14800
C1482       C  0.88354529  0.65692998  0.83974435    -0.24200
H1483       H  0.86211535  0.78125843  0.86885839     0.05000
H1484       H  0.82750678  0.77225851  0.86041970     0.08200
H1485       H  0.85201291  0.78314493  0.83556989     0.08200
H1486       H  0.88138810  0.64471228  0.85790798     0.08200
H1487       H  0.90524167  0.65583843  0.83236427     0.08200
H1488       H  0.87027164  0.64738187  0.82518406     0.05000
C1489       C  0.13345106  0.81714805  0.84426185    -0.20800
C1490       C  0.11792776  0.79744492  0.85815378    -0.07400
C1491       C  0.12858771  0.77004540  0.86000878     0.13500
C1492       C  0.15324952  0.76301318  0.84677414    -0.20900
C1493       C  0.16774008  0.78241988  0.83189078    -0.07400
C1494       C  0.15793792  0.80987350  0.83079145     0.13500
C1495       C  0.17228228  0.83112275  0.81406318    -0.24200
H1496       H  0.12562718  0.83808659  0.84269468     0.14700
H1497       H  0.16082080  0.74192369  0.84726387     0.14800
C1498       C  0.11436450  0.74781475  0.87565867    -0.24200
H1499       H  0.16176412  0.85153131  0.81520047     0.05000
H1500       H  0.17228133  0.82479549  0.79353821     0.08200
H1501       H  0.19395940  0.83332245  0.82041864     0.08200
H1502       H  0.09489355  0.74217749  0.86619608     0.08200
H1503       H  0.11005959  0.75486589  0.89564665     0.08200
H1504       H  0.12735153  0.72880951  0.87711271     0.05000
C1505       C  0.97486729  0.75738413  0.88100391    -0.20800
C1506       C  0.98354335  0.72994665  0.88537910    -0.07400
C1507       C  0.01219094  0.72442154  0.88949839     0.13500
C1508       C  0.03089559  0.74609484  0.88807650    -0.20900
C1509       C  0.02228683  0.77320447  0.88257260    -0.07400
C1510       C  0.99368088  0.77897413  0.87942464     0.13500
C1511       C  0.98262123  0.80752008  0.87346433    -0.24200
H1512       H  0.95308970  0.76212359  0.87830260     0.14700
H1513       H  0.05265108  0.74172984  0.89123952     0.14800
C1514       C  0.02388773  0.69598814  0.89482611    -0.24200
H1515       H  0.95995291  0.80775297  0.87011284     0.05000
H1516       H  0.99287054  0.81588833  0.85568664     0.08200
H1517       H  0.98624314  0.82108558  0.89001419     0.08200
H1518       H  0.02013579  0.68278515  0.87806518     0.08200
H1519       H  0.01440181  0.68716167  0.91277357     0.08200
H1520       H  0.04663713  0.69602404  0.89769702     0.05000
C1521       C  0.85935794  0.12002001  0.79927436    -0.20800
C1522       C  0.85471434  0.09442618  0.78825456    -0.07400
C1523       C  0.83180512  0.09207812  0.77139341     0.13500
C1524       C  0.81577233  0.11562006  0.76489728    -0.20900
C1525       C  0.82185729  0.14142232  0.77464562    -0.07400
C1526       C  0.84329321  0.14335511  0.79284353     0.13500
C1527       C  0.84904358  0.16984676  0.80614778    -0.24200
H1528       H  0.87622697  0.12212953  0.81260124     0.14700
H1529       H  0.79889682  0.11404248  0.75144128     0.14800
C1530       C  0.82360946  0.06506925  0.76026113    -0.24200
H1531       H  0.86474994  0.16699545  0.82149171     0.05000
H1532       H  0.82972434  0.17787019  0.81539990     0.08200
H1533       H  0.85722521  0.18513631  0.79200406     0.08200
H1534       H  0.82053430  0.04963020  0.77610327     0.08200
H1535       H  0.83971035  0.05771603  0.74637627     0.08200
H1536       H  0.80391457  0.06695975  0.74949077     0.05000
C1537       C  0.88013188  0.40731088  0.92348503    -0.20800
C1538       C  0.86141933  0.40007844  0.94366152    -0.07400
C1539       C  0.86937444  0.40480675  0.96960477     0.13500
C1540       C  0.89487023  0.41700141  0.97423883    -0.20900
C1541       C  0.91317009  0.42461841  0.95409453    -0.07400
C1542       C  0.90576446  0.41941199  0.92830798     0.13500
C1543       C  0.92495127  0.42573257  0.90579048    -0.24200
H1544       H  0.87470916  0.40366350  0.90360250     0.14700
H1545       H  0.90043078  0.42103964  0.99403604     0.14800
C1546       C  0.85170262  0.39713517  0.99292166    -0.24200
H1547       H  0.91677134  0.41827415  0.88728139     0.05000
H1548       H  0.94545163  0.41563904  0.90895515     0.08200
H1549       H  0.92739791  0.44818848  0.90356817     0.08200
H1550       H  0.84767286  0.37477745  0.99310053     0.08200
H1551       H  0.83194427  0.40912124  0.99271352     0.08200
H1552       H  0.86197813  0.40163070  0.01141240     0.05000
C1553       C  0.82060542  0.35169548  0.86356960    -0.20800
C1554       C  0.79872078  0.36392682  0.87773968    -0.07400
C1555       C  0.77227816  0.36633180  0.86622684     0.13500
C1556       C  0.76782186  0.35397516  0.84231187    -0.20900
C1557       C  0.78909719  0.33952391  0.82947761    -0.07400
C1558       C  0.81600366  0.33920779  0.83974124     0.13500
C1559       C  0.83952113  0.32437631  0.82620079    -0.24200
H1560       H  0.84103288  0.35025452  0.87193839     0.14700
H1561       H  0.74716152  0.35408299  0.83438481     0.14800
C1562       C  0.74854513  0.38163251  0.87898397    -0.24200
H1563       H  0.85931753  0.32632033  0.83660728     0.05000
H1564       H  0.84232272  0.33309402  0.80633056     0.08200
H1565       H  0.83493213  0.30223722  0.82499684     0.08200
H1566       H  0.75514783  0.40251424  0.88412258     0.08200
H1567       H  0.74138320  0.37023998  0.89654684     0.08200
H1568       H  0.73054024  0.38395947  0.86595450     0.05000
C1569       C  0.72366591  0.37718577  0.98974124    -0.20800
C1570       C  0.72744401  0.35536011  0.00780665    -0.07400
C1571       C  0.75266963  0.33982294  0.00662019     0.13500
C1572       C  0.77264432  0.34619728  0.98732148    -0.20900
C1573       C  0.76822176  0.36749722  0.96914134    -0.07400
C1574       C  0.74370522  0.38348823  0.97066924     0.13500
C1575       C  0.73900951  0.40778471  0.95266143    -0.24200
H1576       H  0.70492130  0.38971135  0.99054745     0.14700
H1577       H  0.79175468  0.33423142  0.98615529     0.14800
C1578       C  0.75877821  0.31616959  0.02502691    -0.24200
H1579       H  0.71907162  0.41861126  0.95692136     0.05000
H1580       H  0.73855984  0.40095050  0.93237526     0.08200
H1581       H  0.75597820  0.42262035  0.95470680     0.08200
H1582       H  0.74246603  0.30052426  0.02372162     0.08200
H1583       H  0.75989807  0.32364859  0.04512389     0.08200
H1584       H  0.77895556  0.30593531  0.02046782     0.05000
C1585       C  0.91013772  0.30266447  0.68926930    -0.20800
C1586       C  0.90410554  0.31060768  0.66368407    -0.07400
C1587       C  0.87632045  0.31679316  0.65709674     0.13500
C1588       C  0.85516439  0.31309824  0.67589736    -0.20900
C1589       C  0.86113847  0.30309411  0.70095002    -0.07400
C1590       C  0.88912490  0.29882846  0.70794979     0.13500
C1591       C  0.89705630  0.29002712  0.73504887    -0.24200
H1592       H  0.93149159  0.29848884  0.69446693     0.14700
H1593       H  0.83372219  0.31622000  0.67048183     0.14800
C1594       C  0.86867055  0.32549077  0.62995809    -0.24200
H1595       H  0.91985846  0.28999779  0.73756060     0.05000
H1596       H  0.89002460  0.26890501  0.73946731     0.08200
H1597       H  0.88764396  0.30442009  0.74920897     0.08200
H1598       H  0.87574747  0.30959831  0.61612077     0.08200
H1599       H  0.87850631  0.34529709  0.62478304     0.08200
H1600       H  0.84592592  0.32835784  0.62796410     0.05000
C1601       C  0.99927019  0.21462055  0.63847207    -0.20800
C1602       C  0.02754728  0.22060776  0.63785418    -0.07400
C1603       C  0.03583663  0.24790620  0.63277152     0.13500
C1604       C  0.01558171  0.26864109  0.62924191    -0.20900
C1605       C  0.98721598  0.26290052  0.63081315    -0.07400
C1606       C  0.97896528  0.23538773  0.63517401     0.13500
C1607       C  0.94890772  0.22752708  0.63558750    -0.24200
H1608       H  0.99303864  0.19359317  0.64196943     0.14700
H1609       H  0.02196588  0.28961027  0.62571065     0.14800
C1610       C  0.06598041  0.25518677  0.63019193    -0.24200
H1611       H  0.94648735  0.20493246  0.63721211     0.05000
H1612       H  0.93893724  0.23475151  0.61740169     0.08200
H1613       H  0.93797270  0.23664449  0.65246718     0.08200
H1614       H  0.07618403  0.24249481  0.61505515     0.08200
H1615       H  0.07652563  0.25161991  0.64891062     0.08200
H1616       H  0.06861955  0.27711023  0.62456133     0.05000
C1617       C  0.62438298  0.16665631  0.81730060    -0.20800
C1618       C  0.59873806  0.17869582  0.81084231    -0.07400
C1619       C  0.59707357  0.19599637  0.78850590     0.13500
C1620       C  0.62134483  0.20231586  0.77451419    -0.20900
C1621       C  0.64736698  0.19185914  0.78200843    -0.07400
C1622       C  0.64871972  0.17306485  0.80331408     0.13500
C1623       C  0.67572134  0.16058654  0.81231261    -0.24200
H1624       H  0.62563222  0.15313325  0.83417917     0.14700
H1625       H  0.62010066  0.21633218  0.75798618     0.14800
C1626       C  0.56986597  0.20776165  0.77898746    -0.24200
H1627       H  0.67297417  0.14753332  0.83001313     0.05000
H1628       H  0.69045310  0.17697063  0.81686219     0.08200
H1629       H  0.68448183  0.14732045  0.79695711     0.08200
H1630       H  0.56130530  0.22300546  0.79274166     0.08200
H1631       H  0.55490446  0.19100148  0.77661038     0.08200
H1632       H  0.57230630  0.21853521  0.75995536     0.05000
C1633       C  0.47178672  0.23874970  0.85625386    -0.20800
C1634       C  0.48369776  0.26339294  0.86371006    -0.07400
C1635       C  0.51254719  0.26410024  0.86793679     0.13500
C1636       C  0.52879438  0.24041194  0.86362489    -0.20900
C1637       C  0.51684693  0.21593065  0.85594673    -0.07400
C1638       C  0.48793142  0.21488807  0.85269484     0.13500
C1639       C  0.47413333  0.18900115  0.84463409    -0.24200
H1640       H  0.44965453  0.23819544  0.85314846     0.14700
H1641       H  0.55101340  0.24096648  0.86621886     0.14800
C1642       C  0.52652043  0.28987400  0.87602126    -0.24200
H1643       H  0.45156421  0.19227830  0.84172908     0.05000
H1644       H  0.47673164  0.17287194  0.85990934     0.08200
H1645       H  0.48345723  0.18177477  0.82615197     0.08200
H1646       H  0.51890741  0.29576669  0.89552546     0.08200
H1647       H  0.52214472  0.30677254  0.86185463     0.08200
H1648       H  0.54934985  0.28698501  0.87707033     0.05000
C1649       C  0.23389036  0.82022579  0.59552531    -0.20800
C1650       C  0.20969924  0.83707723  0.59474944    -0.07400
C1651       C  0.19235764  0.83774030  0.61719947     0.13500
C1652       C  0.20011041  0.82267829  0.63944374    -0.20900
C1653       C  0.22447455  0.80663975  0.64009256    -0.07400
C1654       C  0.24147322  0.80513914  0.61779437     0.13500
C1655       C  0.26833273  0.78883381  0.61775989    -0.24200
H1656       H  0.24758068  0.81914942  0.57876966     0.14700
H1657       H  0.18712857  0.82362878  0.65673966     0.14800
C1658       C  0.16549121  0.85369199  0.61824877    -0.24200
H1659       H  0.27969403  0.79087911  0.59898315     0.05000
H1660       H  0.26414169  0.76673216  0.62117005     0.08200
H1661       H  0.28196816  0.79619819  0.63317810     0.08200
H1662       H  0.15164524  0.84590766  0.60325496     0.08200
H1663       H  0.16934278  0.87592595  0.61537902     0.08200
H1664       H  0.15460027  0.85117700  0.63722577     0.05000
C1665       C  0.25428890  0.85795951  0.46171217    -0.20800
C1666       C  0.28219232  0.85954180  0.46865713    -0.07400
C1667       C  0.28912315  0.86113449  0.49505450     0.13500
C1668       C  0.26792523  0.86196125  0.51379344    -0.20900
C1669       C  0.24001812  0.86164842  0.50682074    -0.07400
C1670       C  0.23301507  0.85918163  0.48053480     0.13500
C1671       C  0.20331417  0.85702749  0.47239296    -0.24200
H1672       H  0.24913179  0.85632502  0.44146132     0.14700
H1673       H  0.27316116  0.86355428  0.53403629     0.14800
C1674       C  0.31881232  0.86130336  0.50369775    -0.24200
H1675       H  0.20173854  0.85372750  0.45126366     0.05000
H1676       H  0.19165676  0.87620256  0.47691102     0.08200
H1677       H  0.19352429  0.83942398  0.48273820     0.08200
H1678       H  0.32897492  0.88035412  0.49673089     0.08200
H1679       H  0.33020037  0.84314080  0.49601724     0.08200
H1680       H  0.32030372  0.86053403  0.52513263     0.05000
C1681       C  0.06976180  0.11385026  0.56995825    -0.20800
C1682       C  0.05908380  0.08839775  0.57823084    -0.07400
C1683       C  0.05409515  0.08371452  0.60511563     0.13500
C1684       C  0.05816874  0.10520821  0.62248770    -0.20900
C1685       C  0.06658431  0.13116898  0.61355086    -0.07400
C1686       C  0.07312779  0.13530995  0.58712475     0.13500
C1687       C  0.08315659  0.16263011  0.57685090    -0.24200
H1688       H  0.07435099  0.11748964  0.54958309     0.14700
H1689       H  0.05342394  0.10219789  0.64291481     0.14800
C1690       C  0.04315088  0.05686555  0.61553899    -0.24200
H1691       H  0.08801652  0.16211216  0.55577934     0.05000
H1692       H  0.10224319  0.16825827  0.58704342     0.08200
H1693       H  0.06697421  0.17874897  0.57990096     0.08200
H1694       H  0.05824481  0.04004095  0.61132503     0.08200
H1695       H  0.02299680  0.05254155  0.60655476     0.08200
H1696       H  0.03980453  0.05720173  0.63685375     0.05000
C1697       C  0.16822301  0.93474961  0.52878536    -0.20800
C1698       C  0.16037622  0.91131950  0.54332396    -0.07400
C1699       C  0.13256214  0.90932005  0.55204394     0.13500
C1700       C  0.11358799  0.93060117  0.54606838    -0.20900
C1701       C  0.12123769  0.95335527  0.53064134    -0.07400
C1702       C  0.14898320  0.95544921  0.52186865     0.13500
C1703       C  0.15847876  0.97922603  0.50505727    -0.24200
H1704       H  0.18947460  0.93643702  0.52195512     0.14700
H1705       H  0.09216069  0.92872069  0.55234341     0.14800
C1706       C  0.12219285  0.88438700  0.56644538    -0.24200
H1707       H  0.18123854  0.97849777  0.50161686     0.05000
H1708       H  0.15310706  0.99889025  0.51454612     0.08200
H1709       H  0.14855186  0.97865563  0.48586716     0.08200
H1710       H  0.13133368  0.88372037  0.58587919     0.08200
H1711       H  0.12774103  0.86551251  0.55570017     0.08200
H1712       H  0.09932780  0.88506200  0.56915613     0.05000
C1713       C  0.95205613  0.93846426  0.62487680    -0.20800
C1714       C  0.93140155  0.95386473  0.63759811    -0.07400
C1715       C  0.92381785  0.98020791  0.62786005     0.13500
C1716       C  0.93783255  0.99090714  0.60612561    -0.20900
C1717       C  0.95931085  0.97606841  0.59395873    -0.07400
C1718       C  0.96620915  0.94925412  0.60312681     0.13500
C1719       C  0.98763960  0.93155366  0.58961261    -0.24200
H1720       H  0.95740230  0.91809248  0.63224585     0.14700
H1721       H  0.93215260  0.01117089  0.59869380     0.14800
C1722       C  0.90038892  0.99681243  0.63975132    -0.24200
H1723       H  0.98902928  0.91063834  0.59850449     0.05000
H1724       H  0.00834870  0.94080915  0.59091371     0.08200
H1725       H  0.98213532  0.92943622  0.56897098     0.08200
H1726       H  0.90574812  0.00292509  0.65958818     0.08200
H1727       H  0.88123196  0.98453891  0.64047876     0.08200
H1728       H  0.89596272  0.01592192  0.62835958     0.05000
C1729       C  0.40843179  0.60297871  0.95679274    -0.20800
C1730       C  0.41270447  0.59593059  0.98293538    -0.07400
C1731       C  0.39445450  0.60685000  0.00186560     0.13500
C1732       C  0.37115783  0.62242605  0.99405449    -0.20900
C1733       C  0.36521607  0.62735733  0.96772504    -0.07400
C1734       C  0.38496766  0.61840107  0.94885134     0.13500
C1735       C  0.38116344  0.62364691  0.92025166    -0.24200
H1736       H  0.42272134  0.59495325  0.94230293     0.14700
H1737       H  0.35702812  0.63013010  0.00877613     0.14800
C1738       C  0.39956746  0.60239880  0.03037273    -0.24200
H1739       H  0.39845251  0.61470275  0.90855805     0.05000
H1740       H  0.38056768  0.64607451  0.91603755     0.08200
H1741       H  0.36173356  0.61420111  0.91388162     0.08200
H1742       H  0.42057929  0.60952952  0.03506489     0.08200
H1743       H  0.39778851  0.58037053  0.03578015     0.08200
H1744       H  0.38432019  0.61396279  0.04244789     0.05000
C1745       C  0.58895368  0.39858390  0.04178738    -0.20800
C1746       C  0.58469784  0.40379503  0.01535005    -0.07400
C1747       C  0.60216138  0.39056543  0.99708091     0.13500
C1748       C  0.62425177  0.37381153  0.00577092    -0.20900
C1749       C  0.62992791  0.37004176  0.03230431    -0.07400
C1750       C  0.61128772  0.38205233  0.05050218     0.13500
C1751       C  0.61487298  0.37831607  0.07907675    -0.24200
H1752       H  0.57531264  0.40844368  0.05578824     0.14700
H1753       H  0.63784936  0.36428424  0.99154059     0.14800
C1754       C  0.59762980  0.39387324  0.96836273    -0.24200
H1755       H  0.59940915  0.39048497  0.09036694     0.05000
H1756       H  0.63574344  0.38503632  0.08455804     0.08200
H1757       H  0.61160595  0.35645023  0.08409069     0.08200
H1758       H  0.60159563  0.41531372  0.96197393     0.08200
H1759       H  0.57603992  0.38847397  0.96376119     0.08200
H1760       H  0.61182298  0.38035004  0.95702986     0.05000
C1761       C  0.43351308  0.38290295  0.93721096    -0.20800
C1762       C  0.45943704  0.38517880  0.94881739    -0.07400
C1763       C  0.48085005  0.36642674  0.94216494     0.13500
C1764       C  0.47636327  0.34714247  0.92283254    -0.20900
C1765       C  0.45109080  0.34628422  0.90953657    -0.07400
C1766       C  0.42895090  0.36376612  0.91778544     0.13500
C1767       C  0.40047316  0.36283554  0.90629666    -0.24200
H1768       H  0.41714258  0.39741868  0.94233065     0.14700
H1769       H  0.49334746  0.33364292  0.91717584     0.14800
C1770       C  0.50907590  0.36797925  0.95406274    -0.24200
H1771       H  0.38540120  0.37625473  0.91674729     0.05000
H1772       H  0.39263595  0.34156401  0.90754468     0.08200
H1773       H  0.40110763  0.37019631  0.88584218     0.08200
H1774       H  0.50727141  0.36488786  0.97536722     0.08200
H1775       H  0.51817839  0.38833995  0.94969316     0.08200
H1776       H  0.52356740  0.35201209  0.94645862     0.05000
C1777       C  0.39741211  0.44958019  0.08718929    -0.20800
C1778       C  0.42630661  0.44718258  0.08400855    -0.07400
C1779       C  0.44287365  0.44240115  0.10613736     0.13500
C1780       C  0.43027508  0.44160627  0.13077221    -0.20900
C1781       C  0.40160828  0.44499121  0.13390927    -0.07400
C1782       C  0.38481923  0.44814522  0.11188514     0.13500
C1783       C  0.35382165  0.45137051  0.11447412    -0.24200
H1784       H  0.38475271  0.45356353  0.07033252     0.14700
H1785       H  0.44293301  0.43882745  0.14781345     0.14800
C1786       C  0.47397983  0.43969259  0.10425795    -0.24200
H1787       H  0.34396553  0.45471824  0.09536110     0.05000
H1788       H  0.34853407  0.46925811  0.12669298     0.08200
H1789       H  0.34500325  0.43254231  0.12350625     0.08200
H1790       H  0.48278759  0.45851471  0.09527936     0.08200
H1791       H  0.47983143  0.42159593  0.09259327     0.08200
H1792       H  0.48346209  0.43673193  0.12358837     0.05000
C1793       C  0.40968941  0.50412549  0.26247364    -0.20800
C1794       C  0.41668874  0.52980738  0.25168019    -0.07400
C1795       C  0.41606064  0.53355208  0.22446820     0.13500
C1796       C  0.40738086  0.51205407  0.20900977    -0.20900
C1797       C  0.39915987  0.48672932  0.21984464    -0.07400
C1798       C  0.40094192  0.48257699  0.24704157     0.13500
C1799       C  0.39445762  0.45543523  0.26008681    -0.24200
H1800       H  0.41043755  0.50106030  0.28329347     0.14700
H1801       H  0.40649546  0.51533627  0.18822455     0.14800
C1802       C  0.42488125  0.55992836  0.21142085    -0.24200
H1803       H  0.39915054  0.45541805  0.28106732     0.05000
H1804       H  0.40712716  0.43880678  0.25113712     0.08200
H1805       H  0.37211170  0.45104474  0.25839331     0.08200
H1806       H  0.44576108  0.56554542  0.21803927     0.08200
H1807       H  0.40958024  0.57636694  0.21596361     0.08200
H1808       H  0.42585683  0.55821296  0.19001606     0.05000
C1809       C  0.72197972  0.80118579  0.90148730    -0.20800
C1810       C  0.70043036  0.82110610  0.90109548    -0.07400
C1811       C  0.68679333  0.82698819  0.87742586     0.13500
C1812       C  0.69615124  0.81402922  0.85495316    -0.20900
C1813       C  0.71872477  0.79552716  0.85516414    -0.07400
C1814       C  0.73144498  0.78847285  0.87882019     0.13500
C1815       C  0.75586739  0.76882283  0.88015103    -0.24200
H1816       H  0.73221866  0.79615584  0.91953188     0.14700
H1817       H  0.68621335  0.81902397  0.83673028     0.14800
C1818       C  0.66321641  0.84760168  0.87495490    -0.24200
H1819       H  0.76411496  0.76683242  0.90006430     0.05000
H1820       H  0.77282056  0.77619531  0.86716778     0.08200
H1821       H  0.74951192  0.74815522  0.87424824     0.08200
H1822       H  0.67007439  0.86818776  0.88071837     0.08200
H1823       H  0.64535872  0.84096631  0.88718066     0.08200
H1824       H  0.65577815  0.84963684  0.85475578     0.05000
C1825       C  0.79523471  0.76885661  0.11214861    -0.20800
C1826       C  0.81210145  0.77225082  0.13355527    -0.07400
C1827       C  0.83640934  0.78769047  0.13073075     0.13500
C1828       C  0.84066615  0.80319892  0.10804204    -0.20900
C1829       C  0.82137431  0.80335631  0.08789646    -0.07400
C1830       C  0.79953490  0.78409872  0.08918247     0.13500
C1831       C  0.77987700  0.77987073  0.06725027    -0.24200
H1832       H  0.77695994  0.75634844  0.11424087     0.14700
H1833       H  0.85849291  0.81637890  0.10689794     0.14800
C1834       C  0.85769726  0.78888417  0.15167762    -0.24200
H1835       H  0.76633260  0.76201759  0.07110137     0.05000
H1836       H  0.79177666  0.77579206  0.04912775     0.08200
H1837       H  0.76599367  0.79806646  0.06465075     0.08200
H1838       H  0.85322404  0.77449212  0.16805086     0.08200
H1839       H  0.85856152  0.81007190  0.15908849     0.08200
H1840       H  0.87835625  0.78301152  0.14358613     0.05000
C1841       C  0.75272606  0.85404031  0.02596966    -0.20800
C1842       C  0.77986482  0.85567437  0.01602803    -0.07400
C1843       C  0.78442714  0.85765384  0.98902606     0.13500
C1844       C  0.76162197  0.85796282  0.97258917    -0.20900
C1845       C  0.73445150  0.85610839  0.98247931    -0.07400
C1846       C  0.72990608  0.85408252  0.00953220     0.13500
C1847       C  0.70136271  0.85022460  0.02111903    -0.24200
H1848       H  0.74945602  0.85196836  0.04672697     0.14700
H1849       H  0.76504262  0.85917226  0.95180863     0.14800
C1850       C  0.81325368  0.85782630  0.97740780    -0.24200
H1851       H  0.70195621  0.84739191  0.04249514     0.05000
H1852       H  0.69192801  0.83172372  0.01299199     0.08200
H1853       H  0.68807842  0.86851757  0.01687214     0.08200
H1854       H  0.82494581  0.83915893  0.98390118     0.08200
H1855       H  0.82422525  0.87637673  0.98347423     0.08200
H1856       H  0.81294332  0.85804670  0.95591185     0.05000
C1857       C  0.93219259  0.91982712  0.41835862    -0.20800
C1858       C  0.95544471  0.93420764  0.40926878    -0.07400
C1859       C  0.96735258  0.92767844  0.38498656     0.13500
C1860       C  0.95681809  0.90568588  0.37119030    -0.20900
C1861       C  0.93453516  0.89033436  0.38104715    -0.07400
C1862       C  0.92150944  0.89803996  0.40450038     0.13500
C1863       C  0.89767924  0.88206630  0.41591499    -0.24200
H1864       H  0.92325694  0.92476963  0.43711527     0.14700
H1865       H  0.96693703  0.89947909  0.35330695     0.14800
C1866       C  0.99222388  0.94262813  0.37447225    -0.24200
H1867       H  0.89053087  0.89037973  0.43477843     0.05000
H1868       H  0.90409114  0.86028190  0.41915001     0.08200
H1869       H  0.87994701  0.88313084  0.40249942     0.08200
H1870       H  0.00963810  0.94031017  0.38817686     0.08200
H1871       H  0.98684822  0.96472506  0.37178223     0.08200
H1872       H  0.99926930  0.93459846  0.35546052     0.05000
C1873       C  0.86438553  0.79457816  0.35265635    -0.20800
C1874       C  0.87137415  0.82151368  0.34502656    -0.07400
C1875       C  0.85327531  0.83655326  0.32836116     0.13500
C1876       C  0.83003488  0.82343831  0.31857925    -0.20900
C1877       C  0.82489807  0.79569540  0.32433734    -0.07400
C1878       C  0.84156170  0.78146845  0.34247429     0.13500
C1879       C  0.83531110  0.75250124  0.35124986    -0.24200
H1880       H  0.87756958  0.78321968  0.36605081     0.14700
H1881       H  0.81698733  0.83439800  0.30477599     0.14800
C1882       C  0.85824716  0.86554636  0.31889892    -0.24200
H1883       H  0.84959979  0.74509827  0.36662839     0.05000
H1884       H  0.83757335  0.73826640  0.33486065     0.08200
H1885       H  0.81383967  0.75167112  0.35920043     0.08200
H1886       H  0.85876926  0.86619122  0.29739617     0.08200
H1887       H  0.87790670  0.87410288  0.32529547     0.08200
H1888       H  0.84102035  0.87909604  0.32574534     0.05000
C1889       C  0.01383673  0.77877820  0.36007688    -0.20800
C1890       C  0.00568647  0.75266023  0.36929192    -0.07400
C1891       C  0.97747318  0.74876714  0.37635273     0.13500
C1892       C  0.95861896  0.77085617  0.37387753    -0.20900
C1893       C  0.96689156  0.79670163  0.36451026    -0.07400
C1894       C  0.99486468  0.80073299  0.35748204     0.13500
C1895       C  0.00467225  0.82768499  0.34616261    -0.24200
H1896       H  0.03527249  0.78215244  0.35462073     0.14700
H1897       H  0.93708431  0.76792090  0.37932816     0.14800
C1898       C  0.96652397  0.72152575  0.38586215    -0.24200
H1899       H  0.02682834  0.82655647  0.34011181     0.05000
H1900       H  0.00245773  0.84401528  0.36073165     0.08200
H1901       H  0.99236521  0.83339300  0.32882447     0.08200
H1902       H  0.97593677  0.71577616  0.40468210     0.08200
H1903       H  0.97110851  0.70550242  0.37135829     0.08200
H1904       H  0.94372413  0.72226170  0.38904904     0.05000
C1905       C  0.63839939  0.88835188  0.25991999    -0.20800
C1906       C  0.63313111  0.89255969  0.28646076    -0.07400
C1907       C  0.64377144  0.87287979  0.30457636     0.13500
C1908       C  0.65868775  0.84986394  0.29571112    -0.20900
C1909       C  0.66384234  0.84568676  0.26927987    -0.07400
C1910       C  0.65349706  0.86527328  0.25110534     0.13500
C1911       C  0.65898206  0.86257772  0.22248192    -0.24200
H1912       H  0.63052668  0.90318379  0.24583052     0.14700
H1913       H  0.66677222  0.83501954  0.30971197     0.14800
C1914       C  0.64093136  0.87624172  0.33337926    -0.24200
H1915       H  0.65063907  0.88048223  0.21126203     0.05000
H1916       H  0.64883400  0.84398648  0.21539866     0.08200
H1917       H  0.68163982  0.86117792  0.21860515     0.08200
H1918       H  0.61884557  0.87511536  0.33943340     0.08200
H1919       H  0.64990515  0.89610943  0.33868644     0.08200
H1920       H  0.65220433  0.85981910  0.34436551     0.05000
C1921       C  0.60434213  0.98416373  0.24046638    -0.20800
C1922       C  0.59908362  0.98752882  0.26706187    -0.07400
C1923       C  0.59296950  0.01442382  0.27612288     0.13500
C1924       C  0.59171263  0.03666712  0.25835809    -0.20900
C1925       C  0.59586336  0.03292433  0.23179710    -0.07400
C1926       C  0.60256267  0.00636398  0.22274538     0.13500
C1927       C  0.60846803  0.00132474  0.19445924    -0.24200
H1928       H  0.60926486  0.96387078  0.23332339     0.14700
H1929       H  0.58672763  0.05709266  0.26516817     0.14800
C1930       C  0.58820215  0.02031955  0.30442005    -0.24200
H1931       H  0.61541109  0.97981895  0.19112036     0.05000
H1932       H  0.62510653  0.01508388  0.18727739     0.08200
H1933       H  0.58948594  0.00509099  0.18300955     0.08200
H1934       H  0.60604466  0.01246813  0.31586107     0.08200
H1935       H  0.56878146  0.01071442  0.31149977     0.08200
H1936       H  0.58597818  0.04267544  0.30788269     0.05000
C1937       C  0.95995869  0.53758104  0.15535275    -0.20800
C1938       C  0.93712410  0.55601674  0.15510753    -0.07400
C1939       C  0.92889053  0.56790148  0.13114349     0.13500
C1940       C  0.94237473  0.55958703  0.10825255    -0.20900
C1941       C  0.96389636  0.53967652  0.10834570    -0.07400
C1942       C  0.97341909  0.52922607  0.13244587     0.13500
C1943       C  0.99678337  0.50834001  0.13437211    -0.24200
H1944       H  0.96684716  0.52886361  0.17366853     0.14700
H1945       H  0.93541815  0.56822358  0.08992559     0.14800
C1946       C  0.90519182  0.58835718  0.12909671    -0.24200
H1947       H  0.00069741  0.50185103  0.15474346     0.05000
H1948       H  0.01620716  0.51726608  0.12645795     0.08200
H1949       H  0.99165134  0.48972074  0.12351340     0.08200
H1950       H  0.91005589  0.60710071  0.13986348     0.08200
H1951       H  0.88589537  0.57914081  0.13698774     0.08200
H1952       H  0.90128441  0.59478824  0.10871030     0.05000
C1953       C  0.84637882  0.64241364  0.23785815    -0.20800
C1954       C  0.83482971  0.65584682  0.21601746    -0.07400
C1955       C  0.84250835  0.64608765  0.19117321     0.13500
C1956       C  0.86057392  0.62312528  0.18905967    -0.20900
C1957       C  0.87152428  0.60932829  0.21094443    -0.07400
C1958       C  0.86453581  0.61959220  0.23573079     0.13500
C1959       C  0.87673177  0.60739205  0.26014628    -0.24200
H1960       H  0.84103607  0.64972119  0.25699945     0.14700
H1961       H  0.86589568  0.61567146  0.16998316     0.14800
C1962       C  0.83248081  0.65996081  0.16664228    -0.24200
H1963       H  0.87074905  0.61941942  0.27745468     0.05000
H1964       H  0.89969077  0.60717817  0.25855194     0.08200
H1965       H  0.86912762  0.58627053  0.26351454     0.08200
H1966       H  0.83778274  0.68203776  0.16653228     0.08200
H1967       H  0.80978762  0.65769807  0.16511748     0.08200
H1968       H  0.84213836  0.65074472  0.14912553     0.05000
C1969       C  0.92024002  0.49351203  0.27796850    -0.20800
C1970       C  0.91185554  0.46786459  0.26893946    -0.07400
C1971       C  0.90134329  0.46670728  0.24340383     0.13500
C1972       C  0.89873978  0.49101730  0.22841445    -0.20900
C1973       C  0.90669293  0.51642940  0.23780097    -0.07400
C1974       C  0.91816619  0.51758944  0.26262627     0.13500
C1975       C  0.92952952  0.54391401  0.27246193    -0.24200
H1976       H  0.92878228  0.49484995  0.29715223     0.14700
H1977       H  0.89087524  0.49016424  0.20890384     0.14800
C1978       C  0.89383205  0.44011479  0.23109602    -0.24200
H1979       H  0.93893679  0.54100335  0.29182708     0.05000
H1980       H  0.91265196  0.55949396  0.27412980     0.08200
H1981       H  0.94578082  0.55164844  0.25887135     0.08200
H1982       H  0.87567281  0.43110697  0.24129364     0.08200
H1983       H  0.91178561  0.42555869  0.23168575     0.08200
H1984       H  0.88812514  0.44315142  0.21047250     0.05000
C1985       C  0.54814909  0.07630267  0.10538724    -0.20800
C1986       C  0.53273039  0.05214822  0.10546951    -0.07400
C1987       C  0.52787885  0.03790105  0.12910789     0.13500
C1988       C  0.53968774  0.04748787  0.15173375    -0.20900
C1989       C  0.55707923  0.07044056  0.15146564    -0.07400
C1990       C  0.56050285  0.08565069  0.12792254     0.13500
C1991       C  0.57796439  0.11095297  0.12569638    -0.24200
H1992       H  0.55154831  0.08732969  0.08720349     0.14700
H1993       H  0.53628135  0.03599286  0.16963450     0.14800
C1994       C  0.51198526  0.01152180  0.13046622    -0.24200
H1995       H  0.57804482  0.11992068  0.10575233     0.05000
H1996       H  0.59977105  0.10573870  0.13054616     0.08200
H1997       H  0.56958367  0.12693549  0.13882621     0.08200
H1998       H  0.52190648  0.99617119  0.11752042     0.08200
H1999       H  0.49024750  0.01543669  0.12457882     0.08200
H2000       H  0.51145345  0.00246113  0.15036736     0.05000
C2001       C  0.61906705  0.92960494  0.95521219    -0.20800
C2002       C  0.59351472  0.91665743  0.95847082    -0.07400
C2003       C  0.59223725  0.88779733  0.95675070     0.13500
C2004       C  0.61683118  0.87249866  0.95299127    -0.20900
C2005       C  0.64252778  0.88537923  0.95148461    -0.07400
C2006       C  0.64366049  0.91429044  0.95186994     0.13500
C2007       C  0.67065914  0.92905031  0.94834818    -0.24200
H2008       H  0.61991006  0.95176900  0.95630433     0.14700
H2009       H  0.61611586  0.85032914  0.95193031     0.14800
C2010       C  0.56504082  0.87315284  0.95842724    -0.24200
H2011       H  0.66754488  0.95169260  0.94811004     0.05000
H2012       H  0.68061399  0.92324315  0.92967735     0.08200
H2013       H  0.68475878  0.92357440  0.96446746     0.08200
H2014       H  0.55086539  0.88162352  0.94342390     0.08200
H2015       H  0.55537134  0.87570910  0.97785600     0.08200
H2016       H  0.56778762  0.85079124  0.95522904     0.05000
C2017       C  0.46362233  0.95217724  0.84441948    -0.20800
C2018       C  0.44450546  0.93061446  0.84536493    -0.07400
C2019       C  0.44170223  0.91501057  0.86880210     0.13500
C2020       C  0.45588907  0.92310979  0.89075323    -0.20900
C2021       C  0.47243346  0.94646128  0.89036836    -0.07400
C2022       C  0.47742348  0.96045668  0.86659154     0.13500
C2023       C  0.49574822  0.98516578  0.86467253    -0.24200
H2024       H  0.46682110  0.96367662  0.82648798     0.14700
H2025       H  0.45276182  0.91198126  0.90892793     0.14800
C2026       C  0.42297995  0.89064461  0.87176606    -0.24200
H2027       H  0.49657803  0.99402390  0.84469847     0.05000
H2028       H  0.51720625  0.97919633  0.87009990     0.08200
H2029       H  0.48774147  0.00140164  0.87773016     0.08200
H2030       H  0.42921509  0.87468685  0.85768611     0.08200
H2031       H  0.40109124  0.89718921  0.86887672     0.08200
H2032       H  0.42412756  0.88099083  0.89139430     0.05000
C2033       C  0.51619613  0.08227162  0.88516386    -0.20800
C2034       C  0.53160180  0.07813146  0.90768874    -0.07400
C2035       C  0.55441382  0.09488796  0.91241774     0.13500
C2036       C  0.56118420  0.11580692  0.89449112    -0.20900
C2037       C  0.54512345  0.12065052  0.87245366    -0.07400
C2038       C  0.52266891  0.10349406  0.86746707     0.13500
C2039       C  0.50538238  0.10783251  0.84366848    -0.24200
H2040       H  0.49859858  0.06937348  0.88182948     0.14700
H2041       H  0.57800334  0.12946870  0.89844882     0.14800
C2042       C  0.57051046  0.09170087  0.93708006    -0.24200
H2043       H  0.48880826  0.09240942  0.84261324     0.05000
H2044       H  0.51877010  0.10606637  0.82609393     0.08200
H2045       H  0.49539310  0.12849030  0.84379949     0.08200
H2046       H  0.57975372  0.07071624  0.93853051     0.08200
H2047       H  0.55645600  0.09509842  0.95397098     0.08200
H2048       H  0.58750273  0.10669616  0.93787870     0.05000
C2049       C  0.13806819  0.17973297  0.67182400    -0.20800
C2050       C  0.11092648  0.18494466  0.68077555    -0.07400
C2051       C  0.10667747  0.19653487  0.70545273     0.13500
C2052       C  0.12964293  0.20400186  0.71983980    -0.20900
C2053       C  0.15675592  0.20019104  0.71029157    -0.07400
C2054       C  0.16107336  0.18740053  0.68617056     0.13500
C2055       C  0.18970738  0.18334375  0.67468698    -0.24200
H2056       H  0.14128252  0.17092215  0.65289071     0.14700
H2057       H  0.12641081  0.21363102  0.73840804     0.14800
C2058       C  0.07804851  0.20094084  0.71688175    -0.24200
H2059       H  0.18910125  0.17436635  0.65512081     0.05000
H2060       H  0.20197658  0.16909847  0.68719670     0.08200
H2061       H  0.20024085  0.20337203  0.67287579     0.08200
H2062       H  0.06660707  0.18138523  0.71694205     0.08200
H2063       H  0.06652304  0.21686527  0.70557638     0.08200
H2064       H  0.07881034  0.20800121  0.73716111     0.05000
C2065       C  0.35076281  0.15622203  0.71340036    -0.20800
C2066       C  0.32906683  0.15197681  0.73137308    -0.07400
C2067       C  0.32364238  0.12497395  0.74025956     0.13500
C2068       C  0.33948775  0.10295346  0.73036419    -0.20900
C2069       C  0.36096144  0.10707638  0.71198055    -0.07400
C2070       C  0.36685316  0.13431543  0.70369506     0.13500
C2071       C  0.39062903  0.14087701  0.68546248    -0.24200
H2072       H  0.35507196  0.17696736  0.70672794     0.14700
H2073       H  0.33509288  0.08229809  0.73720756     0.14800
C2074       C  0.30209807  0.11931539  0.76100065    -0.24200
H2075       H  0.39319755  0.16335055  0.68268905     0.05000
H2076       H  0.38688471  0.13230734  0.66612703     0.08200
H2077       H  0.41026777  0.13229948  0.69341000     0.08200
H2078       H  0.28120683  0.12472205  0.75376342     0.08200
H2079       H  0.30640299  0.13150534  0.77836509     0.08200
H2080       H  0.30202036  0.09730072  0.76698929     0.05000
C2081       C  0.39029060  0.31109998  0.78394133    -0.20800
C2082       C  0.36297331  0.31607821  0.79244945    -0.07400
C2083       C  0.35830131  0.32498759  0.81814278     0.13500
C2084       C  0.38079289  0.32662968  0.83503568    -0.20900
C2085       C  0.40775379  0.31893942  0.82719805    -0.07400
C2086       C  0.41270882  0.31237724  0.80087217     0.13500
C2087       C  0.44146121  0.30643145  0.79035616    -0.24200
H2088       H  0.39391538  0.30447298  0.76424872     0.14700
H2089       H  0.37694114  0.33200163  0.85504256     0.14800
C2090       C  0.32953337  0.33077679  0.82858558    -0.24200
H2091       H  0.44157244  0.30429709  0.76898595     0.05000
H2092       H  0.44978256  0.28688575  0.79867832     0.08200
H2093       H  0.45533639  0.32352132  0.79494481     0.08200
H2094       H  0.31676506  0.31217789  0.82743786     0.08200
H2095       H  0.31985217  0.34786765  0.81727743     0.08200
H2096       H  0.32973168  0.33688686  0.84918022     0.05000
C2097       C  0.12927426  0.66105142  0.68508068    -0.20800
C2098       C  0.14190328  0.63539829  0.68070808    -0.07400
C2099       C  0.17105022  0.63324421  0.67913532     0.13500
C2100       C  0.18697485  0.65633252  0.68418697    -0.20900
C2101       C  0.17438770  0.68139879  0.69121860    -0.07400
C2102       C  0.14515873  0.68410427  0.69049081     0.13500
C2103       C  0.13063279  0.71120557  0.69525833    -0.24200
H2104       H  0.10685742  0.66272817  0.68554452     0.14700
H2105       H  0.20936654  0.65429749  0.68420505     0.14800
C2106       C  0.18531331  0.60653620  0.67231864    -0.24200
H2107       H  0.10799129  0.70999854  0.69211932     0.05000
H2108       H  0.13898952  0.72711501  0.68172740     0.08200
H2109       H  0.13355241  0.71755213  0.71549843     0.08200
H2110       H  0.17804609  0.59972684  0.65323751     0.08200
H2111       H  0.18060261  0.59054831  0.68725771     0.08200
H2112       H  0.20815938  0.60862435  0.67107365     0.05000
C2113       C  0.06306181  0.47902668  0.84087271    -0.20800
C2114       C  0.08499620  0.45962116  0.83879723    -0.07400
C2115       C  0.09112359  0.44279456  0.86090558     0.13500
C2116       C  0.07558632  0.44609062  0.88388820    -0.20900
C2117       C  0.05429448  0.46593301  0.88611616    -0.07400
C2118       C  0.04779518  0.48249292  0.86413742     0.13500
C2119       C  0.02574114  0.50473120  0.86532925    -0.24200
H2120       H  0.05803569  0.49200689  0.82426644     0.14700
H2121       H  0.08063682  0.43337761  0.90068866     0.14800
C2122       C  0.11470321  0.42205184  0.86137771    -0.24200
H2123       H  0.02427685  0.51654045  0.84677052     0.05000
H2124       H  0.03055577  0.51935550  0.88076791     0.08200
H2125       H  0.00525892  0.49549979  0.86938490     0.08200
H2126       H  0.13447362  0.43217645  0.85613013     0.08200
H2127       H  0.11061960  0.40531024  0.84789713     0.08200
H2128       H  0.11731118  0.41232763  0.88084174     0.05000
C2129       C  0.17887051  0.41596635  0.77240363    -0.20800
C2130       C  0.15147569  0.41132632  0.78056600    -0.07400
C2131       C  0.14212349  0.38409813  0.78276305     0.13500
C2132       C  0.16060129  0.36229553  0.77750569    -0.20900
C2133       C  0.18827540  0.36667395  0.76954723    -0.07400
C2134       C  0.19741456  0.39414904  0.76694474     0.13500
C2135       C  0.22639149  0.40101660  0.75824794    -0.24200
H2136       H  0.18592286  0.43691865  0.77057401     0.14700
H2137       H  0.15310779  0.34152579  0.77947987     0.14800
C2138       C  0.11231486  0.37779818  0.78918914    -0.24200
H2139       H  0.22910614  0.42349210  0.75562916     0.05000
H2140       H  0.23135485  0.39132316  0.73943184     0.08200
H2141       H  0.24112055  0.39386267  0.77324466     0.08200
H2142       H  0.09853691  0.38863681  0.77517301     0.08200
H2143       H  0.10692144  0.38429801  0.80903622     0.08200
H2144       H  0.10823875  0.35548797  0.78825413     0.05000
C2145       C  0.09102989  0.51808191  0.75293612    -0.20800
C2146       C  0.11621977  0.50358537  0.75599702    -0.07400
C2147       C  0.13965932  0.51205415  0.74109841     0.13500
C2148       C  0.13696805  0.53424638  0.72338553    -0.20900
C2149       C  0.11150097  0.54795059  0.71977744    -0.07400
C2150       C  0.08838168  0.54013979  0.73518421     0.13500
C2151       C  0.06080729  0.55508462  0.73408020    -0.24200
H2152       H  0.07305296  0.51203785  0.76437244     0.14700
H2153       H  0.15470324  0.54047485  0.71170068     0.14800
C2154       C  0.16770419  0.49825817  0.74386330    -0.24200
H2155       H  0.05499914  0.56233568  0.75370149     0.05000
H2156       H  0.04471759  0.54090589  0.72755963     0.08200
H2157       H  0.06096131  0.57334243  0.72097113     0.08200
H2158       H  0.16708736  0.47691228  0.73687437     0.08200
H2159       H  0.17401806  0.49819566  0.76443769     0.08200
H2160       H  0.18388930  0.50902774  0.73224856     0.05000
C2161       C  0.23870780  0.13943168  0.87240791    -0.20800
C2162       C  0.21080815  0.14005701  0.88059128    -0.07400
C2163       C  0.19063181  0.15233423  0.86405345     0.13500
C2164       C  0.19924211  0.16508813  0.84078214    -0.20900
C2165       C  0.22724342  0.16584276  0.83359319    -0.07400
C2166       C  0.24713965  0.15225389  0.84911097     0.13500
C2167       C  0.27735446  0.15210393  0.84141332    -0.24200
H2168       H  0.25412646  0.12962777  0.88468953     0.14700
H2169       H  0.18424429  0.17614689  0.82892201     0.14800
C2170       C  0.16026071  0.15384619  0.87130534    -0.24200
H2171       H  0.29017016  0.14019813  0.85550914     0.05000
H2172       H  0.28507558  0.17341283  0.84037199     0.08200
H2173       H  0.28006370  0.14262802  0.82215552     0.08200
H2174       H  0.15738359  0.16416446  0.89014687     0.08200
H2175       H  0.15166959  0.13289292  0.87250734     0.08200
H2176       H  0.14803844  0.16567438  0.85669704     0.05000
C2177       C  0.39172257  0.06675966  0.05847577    -0.20800
C2178       C  0.40885400  0.07780888  0.03865638    -0.07400
C2179       C  0.40133936  0.10369556  0.02732876     0.13500
C2180       C  0.37633117  0.11651312  0.03486210    -0.20900
C2181       C  0.35885222  0.10463000  0.05359787    -0.07400
C2182       C  0.36686564  0.07983961  0.06603895     0.13500
C2183       C  0.34867117  0.06652079  0.08643805    -0.24200
H2184       H  0.39720205  0.04723206  0.06757403     0.14700
H2185       H  0.36996910  0.13573637  0.02561138     0.14800
C2186       C  0.41918336  0.11825873  0.00735079    -0.24200
H2187       H  0.35761863  0.04666434  0.09355999     0.05000
H2188       H  0.32797008  0.06256487  0.07839104     0.08200
H2189       H  0.34635384  0.08022950  0.10319953     0.08200
H2190       H  0.41993538  0.10664329  0.98911188     0.08200
H2191       H  0.44038719  0.12064670  0.01489569     0.08200
H2192       H  0.41089296  0.13910953  0.00248161     0.05000
C2193       C  0.28019659  0.12865932  0.99247865    -0.20800
C2194       C  0.26867352  0.13087615  0.01756192    -0.07400
C2195       C  0.23940826  0.13286059  0.02034269     0.13500
C2196       C  0.22286276  0.13131717  0.99829932    -0.20900
C2197       C  0.23439075  0.12833872  0.97332430    -0.07400
C2198       C  0.26362572  0.12762622  0.97040125     0.13500
C2199       C  0.27778541  0.12497547  0.94432737    -0.24200
H2200       H  0.30251547  0.12763977  0.99003206     0.14700
H2201       H  0.20053130  0.13238915  0.00066222     0.14800
C2202       C  0.22505549  0.13590297  0.04630611    -0.24200
H2203       H  0.30066648  0.12340830  0.94597818     0.05000
H2204       H  0.27307341  0.14337302  0.93205436     0.08200
H2205       H  0.27078086  0.10620486  0.93472956     0.08200
H2206       H  0.23056716  0.15572315  0.05488225     0.08200
H2207       H  0.23103846  0.11856889  0.05945558     0.08200
H2208       H  0.20214958  0.13590905  0.04467834     0.05000
C2209       C  0.47491842  0.53732154  0.33564931    -0.20800
C2210       C  0.45483856  0.55861907  0.33472558    -0.07400
C2211       C  0.44678897  0.57152094  0.35815778     0.13500
C2212       C  0.45872480  0.56266095  0.38141991    -0.20900
C2213       C  0.47825097  0.54105839  0.38250045    -0.07400
C2214       C  0.48677169  0.52837044  0.35918009     0.13500
C2215       C  0.50742022  0.50478958  0.35893171    -0.24200
H2216       H  0.48118175  0.52739098  0.31785714     0.14700
H2217       H  0.45235325  0.57258186  0.39919486     0.14800
C2218       C  0.42463672  0.59372728  0.35954165    -0.24200
H2219       H  0.51059720  0.49661029  0.33917244     0.05000
H2220       H  0.49993084  0.48778813  0.37169423     0.08200
H2221       H  0.52779814  0.51169947  0.36568350     0.08200
H2222       H  0.40510791  0.58614056  0.35148026     0.08200
H2223       H  0.43148748  0.61243466  0.34884763     0.08200
H2224       H  0.42002299  0.59988839  0.37975937     0.05000
C2225       C  0.67752512  0.40708206  0.72395239    -0.20800
C2226       C  0.65370149  0.40276881  0.70922990    -0.07400
C2227       C  0.64850786  0.37586731  0.70090833     0.13500
C2228       C  0.66646793  0.35418374  0.70842069    -0.20900
C2229       C  0.68969761  0.35839862  0.72390358    -0.07400
C2230       C  0.69552796  0.38539310  0.73135186     0.13500
C2231       C  0.71985469  0.39141968  0.74810033    -0.24200
H2232       H  0.68189469  0.42763245  0.73018555     0.14700
H2233       H  0.66209921  0.33355979  0.70237796     0.14800
C2234       C  0.62360923  0.36942840  0.68503886    -0.24200
H2235       H  0.72033077  0.41340822  0.75328716     0.05000
H2236       H  0.73945025  0.38653790  0.73757464     0.08200
H2237       H  0.71867921  0.37903870  0.76635633     0.08200
H2238       H  0.62503280  0.38012234  0.66591656     0.08200
H2239       H  0.60434663  0.37594710  0.69538842     0.08200
H2240       H  0.62220940  0.34711468  0.68141304     0.05000
C2241       C  0.55148992  0.48005412  0.62772435    -0.20800
C2242       C  0.55734936  0.46210632  0.60747312    -0.07400
C2243       C  0.57477349  0.43891875  0.61225745     0.13500
C2244       C  0.58723095  0.43539619  0.63653447    -0.20900
C2245       C  0.58339083  0.45462326  0.65630435    -0.07400
C2246       C  0.56432510  0.47695058  0.65190667     0.13500
C2247       C  0.55745979  0.49824448  0.67194541    -0.24200
H2248       H  0.53790901  0.49763225  0.62410359     0.14700
H2249       H  0.60094601  0.41785650  0.63961390     0.14800
C2250       C  0.58034495  0.41761670  0.59194507    -0.24200
H2251       H  0.54136787  0.51319588  0.66518728     0.05000
H2252       H  0.57612570  0.51022698  0.67615976     0.08200
H2253       H  0.54926957  0.48816577  0.68987017     0.08200
H2254       H  0.59287747  0.42639345  0.57574069     0.08200
H2255       H  0.56045165  0.41011303  0.58454958     0.08200
H2256       H  0.59214254  0.39963609  0.59985415     0.05000
C2257       C  0.66014660  0.67100080  0.80473607    -0.20800
C2258       C  0.68483296  0.66770967  0.79058008    -0.07400
C2259       C  0.69385653  0.64140389  0.78296349     0.13500
C2260       C  0.67764815  0.61872054  0.78951590    -0.20900
C2261       C  0.65276051  0.62179619  0.80366326    -0.07400
C2262       C  0.64395744  0.64830563  0.81156314     0.13500
C2263       C  0.61704953  0.65312548  0.82611002    -0.24200
H2264       H  0.65340258  0.69145705  0.81017802     0.14700
H2265       H  0.68439621  0.59847267  0.78346729     0.14800
C2266       C  0.72018895  0.63743053  0.76730752    -0.24200
H2267       H  0.61275147  0.67532724  0.82901541     0.05000
H2268       H  0.61792034  0.64310519  0.84556026     0.08200
H2269       H  0.59961997  0.64481606  0.81509962     0.08200
H2270       H  0.73809996  0.64464297  0.77835869     0.08200
H2271       H  0.71880023  0.64932076  0.74879475     0.08200
H2272       H  0.72403192  0.61552511  0.76267035     0.05000
C2273       C  0.61106800  0.55517080  0.88169821    -0.20800
C2274       C  0.59467502  0.56604766  0.86180219    -0.07400
C2275       C  0.56612416  0.57065873  0.86593100     0.13500
C2276       C  0.55422942  0.56314048  0.88986242    -0.20900
C2277       C  0.57025801  0.55059505  0.90942390    -0.07400
C2278       C  0.59921620  0.54708734  0.90548740     0.13500
C2279       C  0.61782824  0.53496115  0.92609995    -0.24200
H2280       H  0.63309273  0.55204686  0.87821513     0.14700
H2281       H  0.53210169  0.56597168  0.89287017     0.14800
C2282       C  0.54826824  0.58317232  0.84498830    -0.24200
H2283       H  0.64003797  0.53622889  0.92036522     0.05000
H2284       H  0.61330694  0.51293083  0.92941475     0.08200
H2285       H  0.61479254  0.54627664  0.94439339     0.08200
H2286       H  0.54888173  0.56990400  0.82776965     0.08200
H2287       H  0.55604939  0.60379087  0.83939142     0.08200
H2288       H  0.52633923  0.58552424  0.85150385     0.05000
C2289       C  0.61254547  0.50625718  0.78356555    -0.20800
C2290       C  0.61713841  0.53340089  0.77492849    -0.07400
C2291       C  0.61945939  0.53897945  0.74791242     0.13500
C2292       C  0.61813099  0.51722993  0.73060145    -0.20900
C2293       C  0.61463562  0.49013526  0.73944542    -0.07400
C2294       C  0.61111644  0.48462223  0.76619148     0.13500
C2295       C  0.60476458  0.45619196  0.77642977    -0.24200
H2296       H  0.61026418  0.50180287  0.80411727     0.14700
H2297       H  0.62035061  0.52131933  0.70997038     0.14800
C2298       C  0.62258556  0.56767680  0.73691258    -0.24200
H2299       H  0.60103759  0.45592229  0.79770340     0.05000
H2300       H  0.62237348  0.44192196  0.77237332     0.08200
H2301       H  0.58583183  0.44868463  0.76713515     0.08200
H2302       H  0.64287696  0.57599449  0.74232085     0.08200
H2303       H  0.60549378  0.58111700  0.74421286     0.08200
H2304       H  0.62182062  0.56815805  0.71543012     0.05000
C2305       C  0.55345000  0.38649924  0.37722718    -0.20800
C2306       C  0.53109011  0.36851334  0.37494587    -0.07400
C2307       C  0.50519622  0.37636298  0.38625984     0.13500
C2308       C  0.50311497  0.40059748  0.40057687    -0.20900
C2309       C  0.52600506  0.41745322  0.40439011    -0.07400
C2310       C  0.55131442  0.41066875  0.39170990     0.13500
C2311       C  0.57658815  0.42798664  0.39421331    -0.24200
H2312       H  0.57324409  0.38119141  0.36842087     0.14700
H2313       H  0.48346362  0.40595023  0.40975474     0.14800
C2314       C  0.47946136  0.35957949  0.38370739    -0.24200
H2315       H  0.59478086  0.41919273  0.38365469     0.05000
H2316       H  0.58213165  0.42943121  0.41490645     0.08200
H2317       H  0.57239047  0.44878218  0.38589304     0.08200
H2318       H  0.48192115  0.33964826  0.39425764     0.08200
H2319       H  0.47532674  0.35615756  0.36295033     0.08200
H2320       H  0.46089429  0.37005358  0.39212565     0.05000
C2321       C  0.47696633  0.27710144  0.35108824    -0.20800
C2322       C  0.50486248  0.27261540  0.35710847    -0.07400
C2323       C  0.51401614  0.24594112  0.36471012     0.13500
C2324       C  0.49514576  0.22429298  0.36535523    -0.20900
C2325       C  0.46751347  0.22840736  0.35788271    -0.07400
C2326       C  0.45824366  0.25537261  0.35095203     0.13500
C2327       C  0.42866628  0.26170902  0.34358457    -0.24200
H2328       H  0.47004023  0.29761102  0.34541691     0.14700
H2329       H  0.50229742  0.20381500  0.37085824     0.14800
C2330       C  0.54354604  0.24024842  0.37252281    -0.24200
H2331       H  0.42476674  0.28412279  0.34100838     0.05000
H2332       H  0.41432522  0.25407974  0.35900400     0.08200
H2333       H  0.42394655  0.25210605  0.32491491     0.08200
H2334       H  0.54906111  0.25391617  0.38851026     0.08200
H2335       H  0.55779940  0.24374317  0.35578677     0.08200
H2336       H  0.54668511  0.21867376  0.37935822     0.05000
C2337       C  0.27578177  0.37392259  0.62761020    -0.20800
C2338       C  0.30406928  0.37524250  0.62084021    -0.07400
C2339       C  0.32401138  0.36792436  0.63998204     0.13500
C2340       C  0.31496929  0.35697645  0.66393738    -0.20900
C2341       C  0.28687803  0.35283379  0.66912559    -0.07400
C2342       C  0.26697756  0.36255816  0.65136729     0.13500
C2343       C  0.23640713  0.36004053  0.65715177    -0.24200
H2344       H  0.26031019  0.38054490  0.61378824     0.14700
H2345       H  0.33002486  0.34932420  0.67780592     0.14800
C2346       C  0.35483190  0.36990896  0.63532645    -0.24200
H2347       H  0.22366348  0.36972932  0.64163438     0.05000
H2348       H  0.23116738  0.37037463  0.67559506     0.08200
H2349       H  0.23069551  0.33812935  0.65887883     0.08200
H2350       H  0.36034518  0.39159382  0.63132701     0.08200
H2351       H  0.36139783  0.35681854  0.61892240     0.08200
H2352       H  0.36681866  0.36284543  0.65246878     0.05000
C2353       C  0.38820328  0.41687492  0.57512949    -0.20800
C2354       C  0.37328545  0.40462550  0.55538461    -0.07400
C2355       C  0.38579107  0.40227661  0.53053082     0.13500
C2356       C  0.41204100  0.41332544  0.52602669    -0.20900
C2357       C  0.42610033  0.42733713  0.54529109    -0.07400
C2358       C  0.41416299  0.42850820  0.57041794     0.13500
C2359       C  0.42813727  0.44223305  0.59239674    -0.24200
H2360       H  0.37895786  0.41861024  0.59426511     0.14700
H2361       H  0.42100873  0.41210572  0.50672883     0.14800
C2362       C  0.37195020  0.38836717  0.50845819    -0.24200
H2363       H  0.41717804  0.43851023  0.61117196     0.05000
H2364       H  0.42790812  0.46467355  0.58882641     0.08200
H2365       H  0.44971449  0.43428892  0.59431645     0.08200
H2366       H  0.35335261  0.40037650  0.50235511     0.08200
H2367       H  0.36609551  0.36722359  0.51444565     0.08200
H2368       H  0.38582323  0.38678371  0.49117585     0.05000
C2369       C  0.28725351  0.37231361  0.50497272    -0.20800
C2370       C  0.27844826  0.38363477  0.52853479    -0.07400
C2371       C  0.25061462  0.39262439  0.53134639     0.13500
C2372       C  0.23240484  0.38972971  0.51073162    -0.20900
C2373       C  0.24078293  0.37765549  0.48722737    -0.07400
C2374       C  0.26894850  0.36894911  0.48439785     0.13500
C2375       C  0.28025415  0.35577432  0.46019639    -0.24200
H2376       H  0.30865636  0.36553628  0.50280994     0.14700
H2377       H  0.21127630  0.39707716  0.51322697     0.14800
C2378       C  0.23993763  0.40599568  0.55569463    -0.24200
H2379       H  0.30247952  0.34984923  0.46194765     0.05000
H2380       H  0.27862478  0.37042377  0.44354082     0.08200
H2381       H  0.26875472  0.33679822  0.45639172     0.08200
H2382       H  0.25291400  0.42379035  0.56023067     0.08200
H2383       H  0.24020973  0.39090592  0.57202573     0.08200
H2384       H  0.21822574  0.41358061  0.55372574     0.05000
C2385       C  0.41211780  0.91722560  0.43022832    -0.20800
C2386       C  0.40337247  0.94170442  0.44186216    -0.07400
C2387       C  0.37490028  0.94708045  0.44579836     0.13500
C2388       C  0.35584645  0.92704647  0.43961548    -0.20900
C2389       C  0.36456676  0.90143248  0.43009552    -0.07400
C2390       C  0.39306697  0.89683481  0.42437833     0.13500
C2391       C  0.40386822  0.86997867  0.41393837    -0.24200
H2392       H  0.43412268  0.91322067  0.42751730     0.14700
H2393       H  0.33400709  0.93095440  0.44343677     0.14800
C2394       C  0.36468295  0.97359908  0.45736568    -0.24200
H2395       H  0.42678206  0.86974394  0.41166336     0.05000
H2396       H  0.39504336  0.86654363  0.39459068     0.08200
H2397       H  0.39819859  0.85286920  0.42740516     0.08200
H2398       H  0.37170887  0.99115159  0.44506507     0.08200
H2399       H  0.37290503  0.97559665  0.47714038     0.08200
H2400       H  0.34171321  0.97463722  0.45879421     0.05000
C2401       C  0.42505796  0.05950035  0.60134589    -0.20800
C2402       C  0.45329517  0.05149664  0.60180550    -0.07400
C2403       C  0.46671477  0.05016175  0.62605397     0.13500
C2404       C  0.45114380  0.05414113  0.64889173    -0.20900
C2405       C  0.42272430  0.06032556  0.64832527    -0.07400
C2406       C  0.40970679  0.06411191  0.62424326     0.13500
C2407       C  0.37939292  0.07172440  0.62261587    -0.24200
H2408       H  0.41454173  0.06125203  0.58299510     0.14700
H2409       H  0.46116146  0.05194201  0.66747906     0.14800
C2410       C  0.49732217  0.04466665  0.62838447    -0.24200
H2411       H  0.37234025  0.07294936  0.60225768     0.05000
H2412       H  0.37554472  0.09211193  0.63129469     0.08200
H2413       H  0.36684592  0.05609936  0.63314500     0.08200
H2414       H  0.50904404  0.05840601  0.61494146     0.08200
H2415       H  0.50182390  0.02290127  0.62420595     0.08200
H2416       H  0.50462553  0.04826344  0.64829381     0.05000
C2417       C  0.56833966  0.94630427  0.39441077    -0.20800
C2418       C  0.53991102  0.95311679  0.39384550    -0.07400
C2419       C  0.52613440  0.95262604  0.36982607     0.13500
C2420       C  0.54139605  0.94669598  0.34713526    -0.20900
C2421       C  0.56995984  0.94103962  0.34777931    -0.07400
C2422       C  0.58349726  0.94046520  0.37177578     0.13500
C2423       C  0.61416377  0.93498331  0.37359511    -0.24200
H2424       H  0.57916176  0.94661701  0.41262106     0.14700
H2425       H  0.53113687  0.94726997  0.32860706     0.14800
C2426       C  0.49553191  0.95838818  0.36774614    -0.24200
H2427       H  0.62172754  0.93752463  0.39357934     0.05000
H2428       H  0.62567489  0.94931291  0.36056856     0.08200
H2429       H  0.61866033  0.91355191  0.36818577     0.08200
H2430       H  0.49117149  0.98030118  0.37157272     0.08200
H2431       H  0.48392611  0.94517745  0.38174504     0.08200
H2432       H  0.48790972  0.95428511  0.34804835     0.05000
C2433       C  0.43953128  0.08955664  0.40388296    -0.20800
C2434       C  0.44433818  0.09578886  0.42989215    -0.07400
C2435       C  0.44422462  0.12379239  0.43704530     0.13500
C2436       C  0.44089147  0.14436985  0.41783695    -0.20900
C2437       C  0.43712125  0.13794810  0.39180966    -0.07400
C2438       C  0.43585159  0.11008928  0.38483120     0.13500
C2439       C  0.43180695  0.10157699  0.35724473    -0.24200
H2440       H  0.43903070  0.06830743  0.39819114     0.14700
H2441       H  0.44130605  0.16575518  0.42317237     0.14800
C2442       C  0.44828501  0.13253074  0.46452739    -0.24200
H2443       H  0.43342705  0.07895295  0.35521281     0.05000
H2444       H  0.44786435  0.11093713  0.34442965     0.08200
H2445       H  0.41090722  0.10805292  0.35066773     0.08200
H2446       H  0.46875361  0.12503688  0.47145930     0.08200
H2447       H  0.43146029  0.12432372  0.47718658     0.08200
H2448       H  0.44771507  0.15522013  0.46622969     0.05000
C2449       C  0.38504875  0.68694785  0.65804368    -0.20800
C2450       C  0.39611615  0.70452086  0.63881554    -0.07400
C2451       C  0.38151295  0.72919669  0.63229322     0.13500
C2452       C  0.35745651  0.73649954  0.64642906    -0.20900
C2453       C  0.34776812  0.71989227  0.66691897    -0.07400
C2454       C  0.36122608  0.69452951  0.67238838     0.13500
C2455       C  0.35095969  0.67595262  0.69399526    -0.24200
H2456       H  0.39602337  0.66800160  0.66296047     0.14700
H2457       H  0.34685744  0.75585599  0.64225310     0.14800
C2458       C  0.39105912  0.74793387  0.61046874    -0.24200
H2459       H  0.36379145  0.65687536  0.69572872     0.05000
H2460       H  0.32929735  0.67009494  0.69025317     0.08200
H2461       H  0.35163398  0.68671545  0.71270590     0.08200
H2462       H  0.39335954  0.73616125  0.59236540     0.08200
H2463       H  0.41108908  0.75725167  0.61515229     0.08200
H2464       H  0.37597872  0.76502595  0.60687161     0.05000
C2465       C  0.44691102  0.62377480  0.58917145    -0.20800
C2466       C  0.46653174  0.63923293  0.60212803    -0.07400
C2467       C  0.49431870  0.62908411  0.60318665     0.13500
C2468       C  0.50202420  0.60555408  0.58935952    -0.20900
C2469       C  0.48277533  0.59114805  0.57517725    -0.07400
C2470       C  0.45467387  0.59984334  0.57575889     0.13500
C2471       C  0.43309886  0.58477890  0.56118131    -0.24200
H2472       H  0.42560626  0.63109545  0.58851261     0.14700
H2473       H  0.52345282  0.59849504  0.58929225     0.14800
C2474       C  0.51608468  0.64237066  0.61917241    -0.24200
H2475       H  0.41233352  0.59479367  0.56303602     0.05000
H2476       H  0.43152517  0.56345685  0.56894948     0.08200
H2477       H  0.43884834  0.58430185  0.54029943     0.08200
H2478       H  0.50826382  0.64491626  0.63932447     0.08200
H2479       H  0.52184537  0.66253477  0.61058523     0.08200
H2480       H  0.53540090  0.62967203  0.62007464     0.05000
C2481       C  0.63933194  0.77343732  0.63090513    -0.20800
C2482       C  0.62881608  0.80034395  0.63306373    -0.07400
C2483       C  0.64411836  0.81988773  0.64656586     0.13500
C2484       C  0.66885026  0.81155916  0.65854283    -0.20900
C2485       C  0.67832904  0.78427223  0.65763853    -0.07400
C2486       C  0.66389968  0.76515148  0.64307264     0.13500
C2487       C  0.67428043  0.73596666  0.64054015    -0.24200
H2488       H  0.62790932  0.75863362  0.62012949     0.14700
H2489       H  0.67990086  0.82596668  0.67011181     0.14800
C2490       C  0.63372382  0.84897436  0.64999505    -0.24200
H2491       H  0.66088462  0.72399547  0.62781715     0.05000
H2492       H  0.67464887  0.72548678  0.65978423     0.08200
H2493       H  0.69550514  0.73585386  0.63200274     0.08200
H2494       H  0.61269198  0.84895266  0.65900418     0.08200
H2495       H  0.63313383  0.85991162  0.63096842     0.08200
H2496       H  0.64739904  0.86068105  0.66267735     0.05000
C2497       C  0.57815636  0.88690388  0.59495095    -0.20800
C2498       C  0.56629452  0.86299711  0.58544092    -0.07400
C2499       C  0.55119201  0.86458522  0.56223872     0.13500
C2500       C  0.54769827  0.89004543  0.54969276    -0.20900
C2501       C  0.55892330  0.91404642  0.55946362    -0.07400
C2502       C  0.57458225  0.91248513  0.58224220     0.13500
C2503       C  0.58817307  0.93739393  0.59267759    -0.24200
H2504       H  0.59007315  0.88560619  0.61254668     0.14700
H2505       H  0.53559990  0.89130044  0.53218944     0.14800
C2506       C  0.53942679  0.83957469  0.54997538    -0.24200
H2507       H  0.60088923  0.93216683  0.60987903     0.05000
H2508       H  0.57216106  0.95266401  0.59859753     0.08200
H2509       H  0.60193638  0.94661632  0.57757164     0.08200
H2510       H  0.52268294  0.83097650  0.56244449     0.08200
H2511       H  0.55605877  0.82386212  0.54701461     0.08200
H2512       H  0.53030331  0.84454285  0.53080072     0.05000
C2513       C  0.51725176  0.76845614  0.59469907    -0.20800
C2514       C  0.53313183  0.77311579  0.61669166    -0.07400
C2515       C  0.52721172  0.75841331  0.64001685     0.13500
C2516       C  0.50580858  0.73925872  0.64058542    -0.20900
C2517       C  0.49049264  0.73433091  0.61843273    -0.07400
C2518       C  0.49617334  0.74901545  0.59525642     0.13500
C2519       C  0.48006226  0.74398114  0.57112502    -0.24200
H2520       H  0.52175487  0.77965273  0.57683261     0.14700
H2521       H  0.50124007  0.72775988  0.65827892     0.14800
C2522       C  0.54280141  0.76325465  0.66451108    -0.24200
H2523       H  0.48704456  0.75726503  0.55465360     0.05000
H2524       H  0.45771266  0.74833539  0.57482346     0.08200
H2525       H  0.48284745  0.72224698  0.56542903     0.08200
H2526       H  0.54148328  0.78533755  0.66935370     0.08200
H2527       H  0.56481979  0.75682846  0.66203152     0.08200
H2528       H  0.53417040  0.75128417  0.68119077     0.05000
C2529       C  0.29123671  0.16083506  0.15467598    -0.20800
C2530       C  0.27166908  0.18241604  0.15265924    -0.07400
C2531       C  0.25964813  0.18834730  0.12821140     0.13500
C2532       C  0.26880342  0.17387960  0.10653604    -0.20900
C2533       C  0.28922825  0.15309762  0.10818718    -0.07400
C2534       C  0.30011136  0.14602035  0.13286218     0.13500
C2535       C  0.32046686  0.12258661  0.13674619    -0.24200
H2536       H  0.30017240  0.15590959  0.17335459     0.14700
H2537       H  0.26009981  0.17937175  0.08790109     0.14800
C2538       C  0.23673674  0.20949355  0.12443037    -0.24200
H2539       H  0.32516757  0.11897595  0.15753045     0.05000
H2540       H  0.34032561  0.12712437  0.12661536     0.08200
H2541       H  0.31160673  0.10346197  0.12936125     0.08200
H2542       H  0.24481745  0.23043953  0.12669705     0.08200
H2543       H  0.21959751  0.20553844  0.13850470     0.08200
H2544       H  0.22790129  0.20886665  0.10473117     0.05000
C2545       C  0.33045784  0.35731826  0.20656100    -0.20800
C2546       C  0.30914460  0.36353491  0.22447519    -0.07400
C2547       C  0.30426490  0.39121764  0.23114338     0.13500
C2548       C  0.32146491  0.41167580  0.22039077    -0.20900
C2549       C  0.34313448  0.40518645  0.20292973    -0.07400
C2550       C  0.34756137  0.37753731  0.19586276     0.13500
C2551       C  0.37108156  0.36869149  0.17811598    -0.24200
H2552       H  0.33409003  0.33618579  0.20106855     0.14700
H2553       H  0.31809659  0.43287202  0.22576398     0.14800
C2554       C  0.28173006  0.39925754  0.25009387    -0.24200
H2555       H  0.37259659  0.34601134  0.17656374     0.05000
H2556       H  0.39106994  0.37578517  0.18567265     0.08200
H2557       H  0.36784334  0.37718918  0.15828938     0.08200
H2558       H  0.28467092  0.38799781  0.26877733     0.08200
H2559       H  0.26127111  0.39443063  0.24207563     0.08200
H2560       H  0.28174272  0.42159362  0.25395181     0.05000
C2561       C  0.34603018  0.17721480  0.30003413    -0.20800
C2562       C  0.35262123  0.19291116  0.27778803    -0.07400
C2563       C  0.38050288  0.19967546  0.27257246     0.13500
C2564       C  0.40050291  0.19321334  0.29113362    -0.20900
C2565       C  0.39334043  0.18046749  0.31485375    -0.07400
C2566       C  0.36598029  0.17108519  0.31884959     0.13500
C2567       C  0.35696483  0.15661110  0.34355169    -0.24200
H2568       H  0.32461989  0.17194972  0.30389711     0.14700
H2569       H  0.42167936  0.19951115  0.28767252     0.14800
C2570       C  0.38927118  0.21408881  0.24773648    -0.24200
H2571       H  0.33453605  0.15193138  0.34360804     0.05000
H2572       H  0.36079137  0.16973928  0.36039114     0.08200
H2573       H  0.36849152  0.13683808  0.34576897     0.08200
H2574       H  0.38038598  0.23519540  0.24665426     0.08200
H2575       H  0.38233900  0.20228908  0.23094141     0.08200
H2576       H  0.41214434  0.21585714  0.24622493     0.05000
C2577       C  0.20368772  0.34605275  0.35210316    -0.20800
C2578       C  0.22952943  0.33311539  0.34889057    -0.07400
C2579       C  0.24861986  0.33313359  0.36931538     0.13500
C2580       C  0.24059043  0.34435375  0.39309628    -0.20900
C2581       C  0.21384397  0.35552330  0.39728002    -0.07400
C2582       C  0.19541217  0.35716270  0.37595320     0.13500
C2583       C  0.16688412  0.37016789  0.37768545    -0.24200
H2584       H  0.18922729  0.34600149  0.33625469     0.14700
H2585       H  0.25519329  0.34342697  0.40876392     0.14800
C2586       C  0.27756189  0.32137522  0.36615395    -0.24200
H2587       H  0.15643152  0.37078167  0.35867441     0.05000
H2588       H  0.16841517  0.39166656  0.38411416     0.08200
H2589       H  0.15352550  0.35813403  0.39120463     0.08200
H2590       H  0.28802479  0.33137696  0.34925420     0.08200
H2591       H  0.27692785  0.29893510  0.36330156     0.08200
H2592       H  0.29027304  0.32475883  0.38350023     0.05000
C2593       C  0.19985014  0.71821467  0.12844197    -0.20800
C2594       C  0.19672350  0.70448074  0.15236053    -0.07400
C2595       C  0.18434759  0.67842018  0.15352978     0.13500
C2596       C  0.17624696  0.66635365  0.13051331    -0.20900
C2597       C  0.18116026  0.67927427  0.10641242    -0.07400
C2598       C  0.19250398  0.70584516  0.10537175     0.13500
C2599       C  0.19727259  0.72118392  0.08009054    -0.24200
H2600       H  0.20928878  0.73824266  0.12774659     0.14700
H2601       H  0.16774951  0.64591027  0.13121919     0.14800
C2602       C  0.18148192  0.66238471  0.17864753    -0.24200
H2603       H  0.20396392  0.74253100  0.08321706     0.05000
H2604       H  0.17781292  0.72221457  0.06892768     0.08200
H2605       H  0.21382553  0.71087373  0.06854909     0.08200
H2606       H  0.16709729  0.67339904  0.19190047     0.08200
H2607       H  0.20204164  0.65969715  0.18779644     0.08200
H2608       H  0.17299595  0.64167314  0.17568645     0.05000
C2609       C  0.12263345  0.73618907  0.30378658    -0.20800
C2610       C  0.14762715  0.72693261  0.31469874    -0.07400
C2611       C  0.14691295  0.71193163  0.33847414     0.13500
C2612       C  0.12135611  0.70726168  0.35090507    -0.20900
C2613       C  0.09647136  0.71735582  0.34044532    -0.07400
C2614       C  0.09710316  0.73176668  0.31630876     0.13500
C2615       C  0.07110854  0.74198313  0.30311023    -0.24200
H2616       H  0.12310530  0.74734311  0.28541038     0.14700
H2617       H  0.12087907  0.69608928  0.36926151     0.14800
C2618       C  0.17275126  0.70003790  0.35060988    -0.24200
H2619       H  0.07556306  0.75040265  0.28336744     0.05000
H2620       H  0.06117360  0.75877032  0.31429114     0.08200
H2621       H  0.05648418  0.72485267  0.30120240     0.08200
H2622       H  0.18634627  0.71680028  0.35655023     0.08200
H2623       H  0.18384727  0.68662115  0.33660843     0.08200
H2624       H  0.16797855  0.68742814  0.36821505     0.05000
C2625       C  0.38081714  0.66345769  0.26007701    -0.20800
C2626       C  0.36058058  0.66672464  0.27959432    -0.07400
C2627       C  0.36130753  0.64954444  0.30190641     0.13500
C2628       C  0.38104751  0.62818448  0.30328059    -0.20900
C2629       C  0.39960082  0.62321654  0.28265411    -0.07400
C2630       C  0.40028819  0.64170013  0.26127160     0.13500
C2631       C  0.42143418  0.63856516  0.23980626    -0.24200
H2632       H  0.38027655  0.67689611  0.24309966     0.14700
H2633       H  0.38082312  0.61424584  0.31987094     0.14800
C2634       C  0.34092519  0.65330182  0.32401684    -0.24200
H2635       H  0.41955050  0.65533542  0.22501902     0.05000
H2636       H  0.41862585  0.61890897  0.22999610     0.08200
H2637       H  0.44258425  0.63897803  0.24787914     0.08200
H2638       H  0.31961145  0.64935507  0.31755884     0.08200
H2639       H  0.34197105  0.67457634  0.33117949     0.08200
H2640       H  0.34540854  0.63894172  0.34045913     0.05000
C2641       C  0.33170290  0.82891346  0.36526151    -0.20800
C2642       C  0.32434147  0.81991595  0.39034760    -0.07400
C2643       C  0.31513257  0.79269904  0.39428613     0.13500
C2644       C  0.31057052  0.77643150  0.37271412    -0.20900
C2645       C  0.31559163  0.78639729  0.34742611    -0.07400
C2646       C  0.32751873  0.81253405  0.34374116     0.13500
C2647       C  0.33435237  0.82411645  0.31718403    -0.24200
H2648       H  0.33937555  0.84951662  0.36227295     0.14700
H2649       H  0.30200605  0.75615753  0.37552864     0.14800
C2650       C  0.31039532  0.78047012  0.42101447    -0.24200
H2651       H  0.34247469  0.84524965  0.31801304     0.05000
H2652       H  0.31553243  0.82495125  0.30511631     0.08200
H2653       H  0.35058597  0.81112727  0.30789570     0.08200
H2654       H  0.29246512  0.79064791  0.43072092     0.08200
H2655       H  0.32926630  0.78273619  0.43274107     0.08200
H2656       H  0.30585101  0.75823996  0.42030367     0.05000
C2657       C  0.13151153  0.84865013  0.18646053    -0.20800
C2658       C  0.11587360  0.86041030  0.20661603    -0.07400
C2659       C  0.11757669  0.84901603  0.23194115     0.13500
C2660       C  0.13659792  0.82752218  0.23690817    -0.20900
C2661       C  0.15391701  0.81744262  0.21716686    -0.07400
C2662       C  0.15078019  0.82737156  0.19153009     0.13500
C2663       C  0.16856282  0.81624074  0.16980574    -0.24200
H2664       H  0.13009229  0.85743243  0.16706562     0.14700
H2665       H  0.13907025  0.81960478  0.25652153     0.14800
C2666       C  0.09960926  0.85970106  0.25376455    -0.24200
H2667       H  0.16337781  0.82617636  0.15091230     0.05000
H2668       H  0.16537026  0.79382982  0.16827466     0.08200
H2669       H  0.19073774  0.81990448  0.17362222     0.08200
H2670       H  0.07746659  0.85823179  0.24858329     0.08200
H2671       H  0.10441228  0.88139448  0.25756582     0.08200
H2672       H  0.10287217  0.84769225  0.27200470     0.05000
C2673       C  0.07158627  0.02883639  0.33419167    -0.20800
C2674       C  0.09627794  0.04362502  0.33454708    -0.07400
C2675       C  0.10656984  0.05211432  0.35848154     0.13500
C2676       C  0.09204913  0.04520858  0.38140814    -0.20900
C2677       C  0.06761005  0.02996838  0.38103655    -0.07400
C2678       C  0.05711920  0.02191117  0.35703573     0.13500
C2679       C  0.03160676  0.00475823  0.35534495    -0.24200
H2680       H  0.06379743  0.02215822  0.31582731     0.14700
H2681       H  0.10004639  0.05142350  0.39984182     0.14800
C2682       C  0.13349184  0.06705628  0.36018755    -0.24200
H2683       H  0.02764416  0.99861606  0.33516757     0.05000
H2684       H  0.01318393  0.01656092  0.36219109     0.08200
H2685       H  0.03426722  0.98577122  0.36733215     0.08200
H2686       H  0.13181833  0.08725003  0.35003435     0.08200
H2687       H  0.15050411  0.05466083  0.35128199     0.08200
H2688       H  0.13902177  0.07085560  0.38057670     0.05000
C2689       C  0.17359807  0.09791977  0.25365098    -0.20800
C2690       C  0.15092959  0.09917332  0.27108636    -0.07400
C2691       C  0.14218764  0.12515948  0.28038721     0.13500
C2692       C  0.15755192  0.14844262  0.27365182    -0.20900
C2693       C  0.18115282  0.14694399  0.25742395    -0.07400
C2694       C  0.18865822  0.12141015  0.24655209     0.13500
C2695       C  0.21191187  0.11876506  0.22694992    -0.24200
H2696       H  0.17997447  0.07830240  0.24581268     0.14700
H2697       H  0.15123187  0.16804871  0.28157915     0.14800
C2698       C  0.11626251  0.12904696  0.29669811    -0.24200
H2699       H  0.21322744  0.09785196  0.21881699     0.05000
H2700       H  0.23193023  0.12263705  0.23621071     0.08200
H2701       H  0.20858291  0.13360715  0.21064561     0.08200
H2702       H  0.11895483  0.11941967  0.31611567     0.08200
H2703       H  0.09835455  0.12000390  0.28693887     0.08200
H2704       H  0.11126270  0.15110006  0.29972010     0.05000
C2705       C  0.12021456  0.95438709  0.24791057    -0.20800
C2706       C  0.11098819  0.95881108  0.22251972    -0.07400
C2707       C  0.11187821  0.98573465  0.21152373     0.13500
C2708       C  0.11894735  0.00770938  0.22718755    -0.20900
C2709       C  0.12538385  0.00338510  0.25332368    -0.07400
C2710       C  0.12760209  0.97621143  0.26337631     0.13500
C2711       C  0.13800742  0.96988810  0.29030308    -0.24200
H2712       H  0.12072937  0.93376060  0.25615237     0.14700
H2713       H  0.11807812  0.02849614  0.21932674     0.14800
C2714       C  0.10597501  0.99160432  0.18335474    -0.24200
H2715       H  0.14147724  0.94750312  0.29360104     0.05000
H2716       H  0.12274251  0.97677231  0.30514804     0.08200
H2717       H  0.15805896  0.98014054  0.29308310     0.08200
H2718       H  0.08387233  0.98809720  0.17930132     0.08200
H2719       H  0.11934306  0.97826289  0.17103385     0.08200
H2720       H  0.11026993  0.01326990  0.17780741     0.05000
C2721       C  0.57514562  0.60685428  0.04737258    -0.20800
C2722       C  0.55153885  0.60968424  0.03192413    -0.07400
C2723       C  0.54088830  0.63633832  0.02634083     0.13500
C2724       C  0.55303441  0.65900537  0.03778974    -0.20900
C2725       C  0.57507766  0.65592284  0.05525586    -0.07400
C2726       C  0.58694690  0.62942579  0.05916756     0.13500
C2727       C  0.61108459  0.62422201  0.07664403    -0.24200
H2728       H  0.58390397  0.58653095  0.05104778     0.14700
H2729       H  0.54436943  0.67929315  0.03390430     0.14800
C2730       C  0.51581479  0.64109676  0.00969606    -0.24200
H2731       H  0.61721115  0.60215491  0.07775568     0.05000
H2732       H  0.60542485  0.63065109  0.09652261     0.08200
H2733       H  0.62919320  0.63564369  0.06896997     0.08200
H2734       H  0.49798058  0.62961858  0.01795758     0.08200
H2735       H  0.52038228  0.63426931  0.98969830     0.08200
H2736       H  0.50964697  0.66315217  0.00849556     0.05000
C2737       C  0.67583513  0.69891866  0.13924488    -0.20800
C2738       C  0.68284970  0.72660440  0.14106445    -0.07400
C2739       C  0.66954081  0.74629802  0.12481968     0.13500
C2740       C  0.64809213  0.73812360  0.10881643    -0.20900
C2741       C  0.63914953  0.71085363  0.10881385    -0.07400
C2742       C  0.65389709  0.69082843  0.12364593     0.13500
C2743       C  0.64562497  0.66129315  0.12458593    -0.24200
H2744       H  0.68616911  0.68381127  0.15159824     0.14700
H2745       H  0.63714161  0.75349281  0.09723561     0.14800
C2746       C  0.67748605  0.77606581  0.12455059    -0.24200
H2747       H  0.65815219  0.64890957  0.13856095     0.05000
H2748       H  0.64919756  0.65250768  0.10524834     0.08200
H2749       H  0.62352353  0.65968128  0.13055337     0.08200
H2750       H  0.70010130  0.77781133  0.12084145     0.08200
H2751       H  0.67188165  0.78545295  0.14329431     0.08200
H2752       H  0.66653112  0.78807903  0.10920911     0.05000
C2753       C  0.49995095  0.90611306  0.10651997    -0.20800
C2754       C  0.47914643  0.92033367  0.09288809    -0.07400
C2755       C  0.45163856  0.91083532  0.09451324     0.13500
C2756       C  0.44623499  0.88579100  0.10747370    -0.20900
C2757       C  0.46769362  0.87003082  0.11863406    -0.07400
C2758       C  0.49457643  0.88119772  0.11956732     0.13500
C2759       C  0.51782765  0.86693296  0.13401101    -0.24200
H2760       H  0.52089727  0.91376742  0.10568901     0.14700
H2761       H  0.42556143  0.87752719  0.10718282     0.14800
C2762       C  0.42829364  0.92590928  0.08102373    -0.24200
H2763       H  0.53638059  0.88000941  0.13484343     0.05000
H2764       H  0.52433685  0.84776563  0.12428246     0.08200
H2765       H  0.51102407  0.86218034  0.15421231     0.08200
H2766       H  0.43283623  0.92765534  0.05993414     0.08200
H2767       H  0.42562208  0.94669839  0.08914605     0.08200
H2768       H  0.40834623  0.91514248  0.08365310     0.05000
C2769       C  0.38856664  0.77196528  0.19527243    -0.20800
C2770       C  0.36208722  0.77630748  0.18491707    -0.07400
C2771       C  0.35949447  0.79195732  0.16157226     0.13500
C2772       C  0.38339649  0.80239138  0.14916271    -0.20900
C2773       C  0.40984137  0.79703874  0.15910908    -0.07400
C2774       C  0.41240474  0.78192621  0.18262063     0.13500
C2775       C  0.44023976  0.77682004  0.19480897    -0.24200
H2776       H  0.39068168  0.76031918  0.21325845     0.14700
H2777       H  0.38152482  0.81410247  0.13118841     0.14800
C2778       C  0.33168990  0.79811626  0.14977696    -0.24200
H2779       H  0.43831512  0.76596950  0.21384804     0.05000
H2780       H  0.45046572  0.79668452  0.19791152     0.08200
H2781       H  0.45354329  0.76388083  0.18211534     0.08200
H2782       H  0.31768970  0.80803206  0.16420696     0.08200
H2783       H  0.32253723  0.77881927  0.14318218     0.08200
H2784       H  0.33339587  0.81217501  0.13265690     0.05000
C2785       C  0.49734045  0.76219018  0.09187338    -0.20800
C2786       C  0.49841434  0.77434308  0.11612481    -0.07400
C2787       C  0.52112783  0.76879910  0.13225852     0.13500
C2788       C  0.54241818  0.75104298  0.12380348    -0.20900
C2789       C  0.54164551  0.73863706  0.09946892    -0.07400
C2790       C  0.51864005  0.74437943  0.08324486     0.13500
C2791       C  0.51660196  0.73275776  0.05654045    -0.24200
H2792       H  0.47992230  0.76701990  0.07948960     0.14700
H2793       H  0.55973364  0.74674163  0.13643556     0.14800
C2794       C  0.52293298  0.78181648  0.15836984    -0.24200
H2795       H  0.49844942  0.74137134  0.04598916     0.05000
H2796       H  0.51400926  0.71022390  0.05797686     0.08200
H2797       H  0.53547698  0.73769410  0.04493681     0.08200
H2798       H  0.50481440  0.77588974  0.17058935     0.08200
H2799       H  0.52308419  0.80449975  0.15600385     0.08200
H2800       H  0.54203691  0.77524319  0.16864614     0.05000
C2801       C  0.04496343  0.61218944  0.41116599    -0.20800
C2802       C  0.02342656  0.61322358  0.42967276    -0.07400
C2803       C  0.00948192  0.63844791  0.43406195     0.13500
C2804       C  0.01696302  0.66174994  0.41939917    -0.20900
C2805       C  0.03828276  0.66093926  0.40047348    -0.07400
C2806       C  0.05297903  0.63569665  0.39682931     0.13500
C2807       C  0.07701572  0.63290997  0.37802246    -0.24200
H2808       H  0.05594568  0.59286491  0.40826346     0.14700
H2809       H  0.00595818  0.68086420  0.42297509     0.14800
C2810       C  0.98607103  0.64085850  0.45362006    -0.24200
H2811       H  0.08558552  0.61160894  0.37774935     0.05000
H2812       H  0.09404149  0.64643158  0.38373140     0.08200
H2813       H  0.07023692  0.63830261  0.35810251     0.08200
H2814       H  0.99389936  0.63697310  0.47343204     0.08200
H2815       H  0.96980217  0.62585219  0.44939839     0.08200
H2816       H  0.97632228  0.66168091  0.45326395     0.05000
C2817       C  0.03005030  0.56249722  0.61844981    -0.20800
C2818       C  0.04081796  0.56787251  0.59349130    -0.07400
C2819       C  0.06609246  0.58199241  0.59079830     0.13500
C2820       C  0.08079508  0.58851305  0.61304260    -0.20900
C2821       C  0.07091974  0.58147488  0.63796994    -0.07400
C2822       C  0.04458890  0.56930883  0.64070127     0.13500
C2823       C  0.03144531  0.56369220  0.66688371    -0.24200
H2824       H  0.01044739  0.55211884  0.62053363     0.14700
H2825       H  0.10075259  0.59818515  0.61087094     0.14800
C2826       C  0.07845316  0.58910569  0.56462794    -0.24200
H2827       H  0.00983581  0.55658560  0.66521416     0.05000
H2828       H  0.03087295  0.58275393  0.67830837     0.08200
H2829       H  0.04322766  0.54734423  0.67737679     0.08200
H2830       H  0.06466191  0.60404050  0.55444994     0.08200
H2831       H  0.08119697  0.57030432  0.55303105     0.08200
H2832       H  0.09901962  0.59871580  0.56619926     0.05000
C2833       C  0.10476227  0.39693767  0.49048307    -0.20800
C2834       C  0.09076493  0.41119929  0.47068137    -0.07400
C2835       C  0.10199325  0.41151898  0.44536640     0.13500
C2836       C  0.12780006  0.39888644  0.44065963    -0.20900
C2837       C  0.14311794  0.38650468  0.46082033    -0.07400
C2838       C  0.13086125  0.38453098  0.48593399     0.13500
C2839       C  0.14506840  0.36984013  0.50814105    -0.24200
H2840       H  0.09613732  0.39721193  0.50998344     0.14700
H2841       H  0.13679766  0.40038563  0.42137703     0.14800
C2842       C  0.08748310  0.42672368  0.42361889    -0.24200
H2843       H  0.13127094  0.36823034  0.52549131     0.05000
H2844       H  0.16356463  0.38121811  0.51389197     0.08200
H2845       H  0.15118726  0.34870543  0.50246922     0.08200
H2846       H  0.08534287  0.44884372  0.42809259     0.08200
H2847       H  0.06658082  0.41814323  0.42111511     0.08200
H2848       H  0.09908829  0.42497531  0.40497527     0.05000
C2849       C  0.98812249  0.44816043  0.37125301    -0.20800
C2850       C  0.97592265  0.44165832  0.39542866    -0.07400
C2851       C  0.95184183  0.42533578  0.39595975     0.13500
C2852       C  0.93963441  0.41788738  0.37251709    -0.20900
C2853       C  0.95064545  0.42636846  0.34841308    -0.07400
C2854       C  0.97602139  0.44064521  0.34786114     0.13500
C2855       C  0.99072043  0.44793823  0.32273248    -0.24200
H2856       H  0.00686416  0.46008019  0.37063631     0.14700
H2857       H  0.92045903  0.40665981  0.37307083     0.14800
C2858       C  0.93795348  0.41682960  0.42104710    -0.24200
H2859       H  0.01143899  0.45661554  0.32609151     0.05000
H2860       H  0.97867495  0.46362931  0.31163594     0.08200
H2861       H  0.99376161  0.42925342  0.31100209     0.08200
H2862       H  0.93237057  0.43520321  0.43250298     0.08200
H2863       H  0.95216613  0.40310096  0.43215145     0.08200
H2864       H  0.91868730  0.40535390  0.41782610     0.05000
C2865       C  0.95877133  0.37932126  0.60408987    -0.20800
C2866       C  0.96028330  0.35327852  0.59321103    -0.07400
C2867       C  0.96866901  0.35096812  0.56698050     0.13500
C2868       C  0.97597989  0.37472718  0.55258595    -0.20900
C2869       C  0.97554299  0.40093999  0.56370036    -0.07400
C2870       C  0.96639531  0.40305518  0.59002135     0.13500
C2871       C  0.96430323  0.42998545  0.60392173    -0.24200
H2872       H  0.95225993  0.38102151  0.62418456     0.14700
H2873       H  0.98250601  0.37262842  0.53255615     0.14800
C2874       C  0.96924174  0.32363441  0.55383953    -0.24200
H2875       H  0.95566107  0.42749132  0.62386781     0.05000
H2876       H  0.95033937  0.44445712  0.59329376     0.08200
H2877       H  0.98516926  0.43884952  0.60576856     0.08200
H2878       H  0.94852454  0.31418566  0.55552953     0.08200
H2879       H  0.98494831  0.30974128  0.56285060     0.08200
H2880       H  0.97466710  0.32577121  0.53293252     0.05000
C2881       C  0.66003890  0.70221002  0.37519283    -0.20800
C2882       C  0.67871110  0.70576869  0.39549519    -0.07400
C2883       C  0.69794330  0.72745975  0.39311958     0.13500
C2884       C  0.70128486  0.74101845  0.36913523    -0.20900
C2885       C  0.68601266  0.73353306  0.34765178    -0.07400
C2886       C  0.66319410  0.71615148  0.35144285     0.13500
C2887       C  0.64228864  0.71138851  0.33071591    -0.24200
H2888       H  0.64370934  0.68733890  0.37711635     0.14700
H2889       H  0.71795204  0.75547416  0.36657023     0.14800
C2890       C  0.71613870  0.73587368  0.41489262    -0.24200
H2891       H  0.62114065  0.71580438  0.33850098     0.05000
H2892       H  0.64352916  0.68966071  0.32468440     0.08200
H2893       H  0.64530888  0.72501942  0.31349470     0.08200
H2894       H  0.73243833  0.72005137  0.41827217     0.08200
H2895       H  0.70348502  0.73914445  0.43272358     0.08200
H2896       H  0.72689980  0.75535527  0.41022769     0.05000
C2897       C  0.64770438  0.59567648  0.44301783    -0.20800
C2898       C  0.63959390  0.62274701  0.43639143    -0.07400
C2899       C  0.61118701  0.62879061  0.43185421     0.13500
C2900       C  0.59175230  0.60794373  0.43525811    -0.20900
C2901       C  0.59986119  0.58130285  0.44283453    -0.07400
C2902       C  0.62812797  0.57492015  0.44639525     0.13500
C2903       C  0.63739552  0.54660342  0.45520343    -0.24200
H2904       H  0.66938966  0.59089396  0.44630151     0.14700
H2905       H  0.56985584  0.61274839  0.43330580     0.14800
C2906       C  0.60074861  0.65735722  0.42504749    -0.24200
H2907       H  0.66023774  0.54507125  0.45721227     0.05000
H2908       H  0.63108977  0.53133237  0.44087583     0.08200
H2909       H  0.62774978  0.54146625  0.47430724     0.08200
H2910       H  0.60879897  0.66374406  0.40567445     0.08200
H2911       H  0.60735909  0.67198748  0.43984326     0.08200
H2912       H  0.57778374  0.65847131  0.42423813     0.05000
C2913       C  0.79154775  0.71311684  0.58627388    -0.20800
C2914       C  0.81135313  0.69164231  0.58458905    -0.07400
C2915       C  0.82569079  0.68323363  0.60722201     0.13500
C2916       C  0.81958610  0.69622851  0.63063450    -0.20900
C2917       C  0.79927539  0.71712735  0.63245721    -0.07400
C2918       C  0.78520323  0.72586348  0.60984242     0.13500
C2919       C  0.76250838  0.74751474  0.61051095    -0.24200
H2920       H  0.78052628  0.71970959  0.56905585     0.14700
H2921       H  0.83040144  0.68950325  0.64793525     0.14800
C2922       C  0.84653419  0.65982114  0.60747581    -0.24200
H2923       H  0.75274122  0.75060225  0.59132243     0.05000
H2924       H  0.77109209  0.76745669  0.61614064     0.08200
H2925       H  0.74608562  0.74128437  0.62458893     0.08200
H2926       H  0.86492232  0.66545734  0.59554259     0.08200
H2927       H  0.83703809  0.64103388  0.59999961     0.08200
H2928       H  0.85394734  0.65489493  0.62730888     0.05000
C2929       C  0.90246681  0.61505384  0.49434836    -0.20800
C2930       C  0.91750054  0.60438000  0.51532935    -0.07400
C2931       C  0.90927605  0.61120136  0.54070265     0.13500
C2932       C  0.88554044  0.62779303  0.54454231    -0.20900
C2933       C  0.86941620  0.63751025  0.52364725    -0.07400
C2934       C  0.87862869  0.63159021  0.49806257     0.13500
C2935       C  0.86383352  0.64252348  0.47444671    -0.24200
H2936       H  0.90888972  0.60950616  0.47490969     0.14700
H2937       H  0.87885286  0.63198428  0.56416454     0.14800
C2938       C  0.92459005  0.59967335  0.56380206    -0.24200
H2939       H  0.87524904  0.63740887  0.45629303     0.05000
H2940       H  0.86201786  0.66521504  0.47527243     0.08200
H2941       H  0.84305557  0.63336282  0.47322502     0.08200
H2942       H  0.94643530  0.60636931  0.56293294     0.08200
H2943       H  0.92414211  0.57690404  0.56386814     0.08200
H2944       H  0.91519348  0.60673297  0.58232261     0.05000
C2945       C  0.74909108  0.64843035  0.51014466    -0.20800
C2946       C  0.77266560  0.66299116  0.50239878    -0.07400
C2947       C  0.77289252  0.67734114  0.47850392     0.13500
C2948       C  0.74989736  0.67601954  0.46243696    -0.20900
C2949       C  0.72600051  0.66151831  0.46989289    -0.07400
C2950       C  0.72569706  0.64745798  0.49427926     0.13500
C2951       C  0.70085031  0.63195328  0.50422385    -0.24200
H2952       H  0.74902272  0.63778516  0.52877848     0.14700
H2953       H  0.75077251  0.68649660  0.44383645     0.14800
C2954       C  0.79692522  0.69497691  0.47034358    -0.24200
H2955       H  0.70398058  0.62362083  0.52415686     0.05000
H2956       H  0.69701211  0.61426525  0.49165966     0.08200
H2957       H  0.68236492  0.64582988  0.50474532     0.08200
H2958       H  0.81589265  0.68208165  0.46819777     0.08200
H2959       H  0.80028605  0.71073126  0.48515137     0.08200
H2960       H  0.79321749  0.70577042  0.45153671     0.05000
C2961       C  0.61173923  0.15006938  0.21195568    -0.20800
C2962       C  0.62188623  0.12548428  0.20143506    -0.07400
C2963       C  0.64985519  0.12345128  0.19343663     0.13500
C2964       C  0.66753985  0.14534185  0.19769019    -0.20900
C2965       C  0.65810165  0.16939862  0.20988348    -0.07400
C2966       C  0.62953106  0.17212233  0.21632162     0.13500
C2967       C  0.61800509  0.19737686  0.22916398    -0.24200
H2968       H  0.59008506  0.15159872  0.21767773     0.14700
H2969       H  0.68923262  0.14325402  0.19222700     0.14800
C2970       C  0.66117042  0.09792827  0.18074421    -0.24200
H2971       H  0.59547469  0.19574577  0.23344822     0.05000
H2972       H  0.62100742  0.21562821  0.21628981     0.08200
H2973       H  0.62873827  0.20023555  0.24771670     0.08200
H2974       H  0.64947856  0.09411266  0.16287043     0.08200
H2975       H  0.65913404  0.08000956  0.19420436     0.08200
H2976       H  0.68340556  0.09985586  0.17531911     0.05000
C2977       C  0.71334855  0.29200660  0.08887287    -0.20800
C2978       C  0.69305567  0.31313943  0.09026760    -0.07400
C2979       C  0.68108124  0.31880212  0.11484298     0.13500
C2980       C  0.68973856  0.30383051  0.13688563    -0.20900
C2981       C  0.71048400  0.28332332  0.13564482    -0.07400
C2982       C  0.72229416  0.27716952  0.11107044     0.13500
C2983       C  0.74406922  0.25488410  0.10785283    -0.24200
H2984       H  0.72264257  0.28726167  0.07023393     0.14700
H2985       H  0.68072141  0.30893368  0.15555149     0.14800
C2986       C  0.65972843  0.34110541  0.11850506    -0.24200
H2987       H  0.74943600  0.25161864  0.08714333     0.05000
H2988       H  0.73634285  0.23521739  0.11614695     0.08200
H2989       H  0.76338002  0.26053944  0.11762549     0.08200
H2990       H  0.64065728  0.33495433  0.10888573     0.08200
H2991       H  0.66759843  0.36081079  0.11049789     0.08200
H2992       H  0.65433283  0.34418816  0.13923320     0.05000
C2993       C  0.64000566  0.30996821  0.31186429    -0.20800
C2994       C  0.63837579  0.29141478  0.29148411    -0.07400
C2995       C  0.61203315  0.28276404  0.28372063     0.13500
C2996       C  0.58831037  0.29170161  0.29739189    -0.20900
C2997       C  0.59002313  0.30926107  0.31853461    -0.07400
C2998       C  0.61622522  0.31924658  0.32530361     0.13500
C2999       C  0.61959759  0.33870211  0.34727748    -0.24200
H3000       H  0.66017168  0.31682493  0.31767936     0.14700
H3001       H  0.56823943  0.28424830  0.29197721     0.14800
C3002       C  0.60878248  0.26278891  0.26217276    -0.24200
H3003       H  0.64170253  0.34323855  0.35057782     0.05000
H3004       H  0.61092805  0.32964391  0.36548758     0.08200
H3005       H  0.60885206  0.35846073  0.34264528     0.08200
H3006       H  0.62093987  0.24378919  0.26654741     0.08200
H3007       H  0.61605800  0.27210048  0.24358957     0.08200
H3008       H  0.58684751  0.25702945  0.25973462     0.05000
C3009       C  0.85712835  0.33356254  0.30599040    -0.20800
C3010       C  0.84907319  0.33078376  0.28015286    -0.07400
C3011       C  0.86059827  0.34843440  0.26098253     0.13500
C3012       C  0.87894716  0.36884688  0.26809789    -0.20900
C3013       C  0.88582342  0.37307205  0.29408196    -0.07400
C3014       C  0.87514697  0.35461185  0.31327401     0.13500
C3015       C  0.88146350  0.35761284  0.34151201    -0.24200
H3016       H  0.84819745  0.32008911  0.32070241     0.14700
H3017       H  0.88748966  0.38213099  0.25306644     0.14800
C3018       C  0.85348318  0.34597477  0.23279874    -0.24200
H3019       H  0.87057128  0.34213117  0.35380163     0.05000
H3020       H  0.87470739  0.37828288  0.34802705     0.08200
H3021       H  0.90402056  0.35467902  0.34460174     0.08200
H3022       H  0.83126738  0.35102668  0.22992054     0.08200
H3023       H  0.85803374  0.32475444  0.22633939     0.08200
H3024       H  0.86558787  0.36029175  0.22024675     0.05000
C3025       C  0.74277050  0.13555133  0.62616303    -0.20800
C3026       C  0.71496185  0.13034177  0.62064188    -0.07400
C3027       C  0.69415490  0.13740309  0.63925170     0.13500
C3028       C  0.70164144  0.15130478  0.66165112    -0.20900
C3029       C  0.72914576  0.15847544  0.66572271    -0.07400
C3030       C  0.75006427  0.14970809  0.64827659     0.13500
C3031       C  0.78010287  0.15590573  0.65265035    -0.24200
H3032       H  0.75892042  0.12949192  0.61255268     0.14700
H3033       H  0.68573621  0.15825499  0.67516651     0.14800
C3034       C  0.66392129  0.13202052  0.63515861    -0.24200
H3035       H  0.79386228  0.14666962  0.63762702     0.05000
H3036       H  0.78645922  0.14747114  0.67182571     0.08200
H3037       H  0.78325722  0.17838910  0.65202520     0.08200
H3038       H  0.66058807  0.10959472  0.63425539     0.08200
H3039       H  0.65695793  0.14232042  0.61696808     0.08200
H3040       H  0.65071449  0.13995327  0.65123957     0.05000
C3041       C  0.63112286  0.08520744  0.57609458    -0.20800
C3042       C  0.65541362  0.07941524  0.56162521    -0.07400
C3043       C  0.65479076  0.05890518  0.54261202     0.13500
C3044       C  0.62958558  0.04669653  0.53709816    -0.20900
C3045       C  0.60493777  0.05413043  0.55004877    -0.07400
C3046       C  0.60580860  0.07297635  0.57045754     0.13500
C3047       C  0.58045127  0.08186037  0.58570854    -0.24200
H3048       H  0.63149155  0.10046840  0.59105087     0.14700
H3049       H  0.62886726  0.03185399  0.52176907     0.14800
C3050       C  0.68046928  0.04941277  0.52811156    -0.24200
H3051       H  0.58343517  0.07670894  0.60652855     0.05000
H3052       H  0.56127028  0.07199059  0.57950558     0.08200
H3053       H  0.57735474  0.10440999  0.58345872     0.08200
H3054       H  0.69685878  0.04331360  0.54203944     0.08200
H3055       H  0.68801565  0.06591669  0.51485794     0.08200
H3056       H  0.67638368  0.03137486  0.51602966     0.05000
C3057       C  0.87916227  0.05333079  0.45432302    -0.20800
C3058       C  0.90545874  0.06390375  0.44900704    -0.07400
C3059       C  0.90784446  0.09049530  0.43782942     0.13500
C3060       C  0.88376173  0.10640365  0.43351391    -0.20900
C3061       C  0.85755982  0.09653098  0.44063662    -0.07400
C3062       C  0.85513004  0.06920462  0.45012978     0.13500
C3063       C  0.82735584  0.05644148  0.45557900    -0.24200
H3064       H  0.87749322  0.03275181  0.46251671     0.14700
H3065       H  0.88552549  0.12722860  0.42597122     0.14800
C3066       C  0.93569452  0.10288254  0.43209253    -0.24200
H3067       H  0.82948831  0.03424860  0.46063394     0.05000
H3068       H  0.81427641  0.05845404  0.43813055     0.08200
H3069       H  0.81676766  0.06644918  0.47217208     0.08200
H3070       H  0.94693133  0.09072667  0.41723666     0.08200
H3071       H  0.94804776  0.10314468  0.45003811     0.08200
H3072       H  0.93368661  0.12430663  0.42451855     0.05000
C3073       C  0.78564395  0.19313917  0.39943156    -0.20800
C3074       C  0.80270497  0.16968085  0.39630763    -0.07400
C3075       C  0.81364945  0.16416906  0.37114261     0.13500
C3076       C  0.80721177  0.18206499  0.35032611    -0.20900
C3077       C  0.78962779  0.20502131  0.35340392    -0.07400
C3078       C  0.77874631  0.21065714  0.37842436     0.13500
C3079       C  0.76016169  0.23526785  0.38338469    -0.24200
H3080       H  0.77731539  0.19774258  0.41848078     0.14700
H3081       H  0.81523384  0.17748215  0.33114692     0.14800
C3082       C  0.83119518  0.13901371  0.36536876    -0.24200
H3083       H  0.75541966  0.23758471  0.40434249     0.05000
H3084       H  0.74011838  0.23304913  0.37351099     0.08200
H3085       H  0.77042930  0.25425023  0.37631120     0.08200
H3086       H  0.81992404  0.12021554  0.37136819     0.08200
H3087       H  0.85121016  0.13990709  0.37554659     0.08200
H3088       H  0.83615949  0.13738199  0.34438252     0.05000
C3089       C  0.78528991  0.12261491  0.50738364    -0.20800
C3090       C  0.77463841  0.13329990  0.48393006    -0.07400
C3091       C  0.74599968  0.14019890  0.48290133     0.13500
C3092       C  0.72895632  0.13533860  0.50488267    -0.20900
C3093       C  0.73971236  0.12414173  0.52797805    -0.07400
C3094       C  0.76831277  0.11785330  0.52923475     0.13500
C3095       C  0.78089716  0.10474366  0.55310117    -0.24200
H3096       H  0.80713935  0.11734993  0.50857266     0.14700
H3097       H  0.70697204  0.14008966  0.50399466     0.14800
C3098       C  0.73289971  0.15169812  0.45863144    -0.24200
H3099       H  0.80318828  0.09953316  0.55010330     0.05000
H3100       H  0.76999723  0.08547515  0.55825780     0.08200
H3101       H  0.77928396  0.11907233  0.56946299     0.08200
H3102       H  0.73628954  0.13725324  0.44249678     0.08200
H3103       H  0.74194949  0.17188777  0.45346389     0.08200
H3104       H  0.71020650  0.15494360  0.46117061     0.05000
C3105       C  0.91673961  0.20831039  0.19710159    -0.20800
C3106       C  0.91434414  0.19064515  0.17603351    -0.07400
C3107       C  0.88766253  0.18356045  0.16788782     0.13500
C3108       C  0.86431589  0.19530222  0.18022956    -0.20900
C3109       C  0.86678252  0.21365237  0.20074369    -0.07400
C3110       C  0.89343640  0.21979982  0.20960143     0.13500
C3111       C  0.89768392  0.23921238  0.23146402    -0.24200
H3112       H  0.93715680  0.21362015  0.20360629     0.14700
H3113       H  0.84386162  0.19020713  0.17366922     0.14800
C3114       C  0.88348172  0.16454083  0.14570606    -0.24200
H3115       H  0.91998299  0.24301684  0.23458056     0.05000
H3116       H  0.88915193  0.23024168  0.24970118     0.08200
H3117       H  0.88731095  0.25927244  0.22715318     0.08200
H3118       H  0.89219671  0.14388215  0.15058971     0.08200
H3119       H  0.89377411  0.17280439  0.12790759     0.08200
H3120       H  0.86118990  0.16210100  0.14149134     0.05000
C3121       C  0.01385054  0.38384751  0.08752973    -0.20800
C3122       C  0.02834982  0.40863430  0.08814393    -0.07400
C3123       C  0.04970975  0.41080534  0.10653007     0.13500
C3124       C  0.05582385  0.38846143  0.12325619    -0.20900
C3125       C  0.04152746  0.36360114  0.12242446    -0.07400
C3126       C  0.02007294  0.36142200  0.10406474     0.13500
C3127       C  0.00321522  0.33586715  0.10139789    -0.24200
H3128       H  0.99736389  0.38177201  0.07376169     0.14700
H3129       H  0.07230240  0.39050026  0.13702254     0.14800
C3130       C  0.06678237  0.43615674  0.10864852    -0.24200
H3131       H  0.98692444  0.33848624  0.08656447     0.05000
H3132       H  0.99259347  0.33075827  0.12004219     0.08200
H3133       H  0.01680868  0.31853670  0.09519224     0.08200
H3134       H  0.05323421  0.45372335  0.11433369     0.08200
H3135       H  0.07751088  0.44047957  0.08989391     0.08200
H3136       H  0.08297769  0.43375966  0.12359737     0.05000
C3137       C  0.14080473  0.33746594  0.21297935    -0.20800
C3138       C  0.13655410  0.32060376  0.23502669    -0.07400
C3139       C  0.10945891  0.31176307  0.24115378     0.13500
C3140       C  0.08835168  0.31664352  0.22322365    -0.20900
C3141       C  0.09371332  0.32989003  0.19931360    -0.07400
C3142       C  0.11975325  0.34201165  0.19484365     0.13500
C3143       C  0.12631919  0.35755557  0.17006658    -0.24200
H3144       H  0.16149855  0.34452984  0.20838558     0.14700
H3145       H  0.06802885  0.30823248  0.22703812     0.14800
C3146       C  0.10284441  0.29642432  0.26608359    -0.24200
H3147       H  0.14797926  0.36484952  0.16953315     0.05000
H3148       H  0.11236424  0.37581940  0.16829698     0.08200
H3149       H  0.12362462  0.34412600  0.15322058     0.08200
H3150       H  0.10967834  0.30846229  0.28276231     0.08200
H3151       H  0.11319597  0.27595962  0.26653802     0.08200
H3152       H  0.08024688  0.29306422  0.26844440     0.05000
C3153       C  0.02731239  0.25800233  0.12889080    -0.20800
C3154       C  0.03456181  0.26702882  0.15358012    -0.07400
C3155       C  0.02866730  0.25003621  0.17558327     0.13500
C3156       C  0.01447084  0.22559779  0.17233192    -0.20900
C3157       C  0.00591645  0.21754518  0.14793720    -0.07400
C3158       C  0.01302808  0.23342849  0.12582863     0.13500
C3159       C  0.00428725  0.22522811  0.09927020    -0.24200
H3160       H  0.03214339  0.27059939  0.11195453     0.14700
H3161       H  0.00858107  0.21330259  0.18920411     0.14800
C3162       C  0.03549195  0.25795942  0.20281772    -0.24200
H3163       H  0.01109494  0.24023892  0.08411236     0.05000
H3164       H  0.98137289  0.22399923  0.09864603     0.08200
H3165       H  0.01360223  0.20488368  0.09464247     0.08200
H3166       H  0.02576963  0.27817167  0.20727645     0.08200
H3167       H  0.05827743  0.25875450  0.20503572     0.08200
H3168       H  0.02769588  0.24285803  0.21745806     0.05000
C3169       C  0.12898412  0.10960006  0.96259933    -0.20800
C3170       C  0.14441096  0.09852634  0.94208712    -0.07400
C3171       C  0.13338974  0.07701241  0.92783398     0.13500
C3172       C  0.10771509  0.06619238  0.93536922    -0.20900
C3173       C  0.09251846  0.07632667  0.95677564    -0.07400
C3174       C  0.10313008  0.09915778  0.97003678     0.13500
C3175       C  0.08796559  0.11287585  0.99214430    -0.24200
H3176       H  0.13740743  0.12656382  0.97302299     0.14700
H3177       H  0.09992939  0.04911613  0.92473758     0.14800
C3178       C  0.14911213  0.06450391  0.90541856    -0.24200
H3179       H  0.09874019  0.13142365  0.99860268     0.05000
H3180       H  0.08684129  0.09860310  0.00905737     0.08200
H3181       H  0.06689846  0.11952256  0.98606292     0.08200
H3182       H  0.13805521  0.04688049  0.89737943     0.08200
H3183       H  0.16976467  0.05697734  0.91188236     0.08200
H3184       H  0.15170544  0.07999084  0.88957331     0.05000
C3185       C  0.06007104  0.90665400  0.13193851    -0.20800
C3186       C  0.05375367  0.92063219  0.15476775    -0.07400
C3187       C  0.03285854  0.94140161  0.15437524     0.13500
C3188       C  0.02202822  0.95041155  0.13052760    -0.20900
C3189       C  0.03150965  0.93914076  0.10712911    -0.07400
C3190       C  0.04916265  0.91552641  0.10811782     0.13500
C3191       C  0.05693673  0.89961172  0.08430287    -0.24200
H3192       H  0.07520685  0.88995090  0.13235346     0.14700
H3193       H  0.00738569  0.96752863  0.13010245     0.14800
C3194       C  0.02177685  0.95407996  0.17892513    -0.24200
H3195       H  0.06806190  0.88010397  0.08929734     0.05000
H3196       H  0.07097171  0.91176075  0.07161743     0.08200
H3197       H  0.03798216  0.89436831  0.07370353     0.08200
H3198       H  0.03778229  0.96642178  0.18813128     0.08200
H3199       H  0.01481857  0.93766668  0.19262514     0.08200
H3200       H  0.00376333  0.96798978  0.17508495     0.05000
C3201       C  0.94916458  0.11511158  0.11067979    -0.20800
C3202       C  0.97200527  0.12663985  0.12279480    -0.07400
C3203       C  0.99815744  0.11297970  0.12099984     0.13500
C3204       C  0.00110528  0.08961955  0.10565233    -0.20900
C3205       C  0.97866736  0.07924553  0.09231644    -0.07400
C3206       C  0.95226219  0.09171433  0.09528725     0.13500
C3207       C  0.92773228  0.08125309  0.08106213    -0.24200
H3208       H  0.92904103  0.12520848  0.11220126     0.14700
H3209       H  0.02135347  0.07993871  0.10320741     0.14800
C3210       C  0.02309033  0.12256811  0.13528191    -0.24200
H3211       H  0.90865730  0.09357648  0.08518296     0.05000
H3212       H  0.92385943  0.05965835  0.08709682     0.08200
H3213       H  0.93188180  0.08224827  0.05986020     0.08200
H3214       H  0.01788464  0.12457006  0.15617920     0.08200
H3215       H  0.03009619  0.14252856  0.12712561     0.08200
H3216       H  0.04082709  0.10784158  0.13360049     0.05000
C3217       C  0.89595287  0.87124724  0.05064063    -0.20800
C3218       C  0.86936179  0.88330004  0.05080539    -0.07400
C3219       C  0.86635527  0.91221686  0.05059728     0.13500
C3220       C  0.89011598  0.92831478  0.04887899    -0.20900
C3221       C  0.91657008  0.91617145  0.04652986    -0.07400
C3222       C  0.91962000  0.88730333  0.04798880     0.13500
C3223       C  0.94770388  0.87332878  0.04657769    -0.24200
H3224       H  0.89815973  0.84906660  0.05131502     0.14700
H3225       H  0.88792126  0.95048902  0.04771446     0.14800
C3226       C  0.83830149  0.92621617  0.05223263    -0.24200
H3227       H  0.94627248  0.85078894  0.04977242     0.05000
H3228       H  0.96125270  0.88147923  0.06167564     0.08200
H3229       H  0.95737907  0.87680451  0.02721585     0.08200
H3230       H  0.82695962  0.91882435  0.06981047     0.08200
H3231       H  0.82616880  0.92188066  0.03477637     0.08200
H3232       H  0.84003382  0.94885451  0.05337130     0.05000
C3233       C  0.93989519  0.06496675  0.88760085    -0.20800
C3234       C  0.96008568  0.04386451  0.88945335    -0.07400
C3235       C  0.96630675  0.02822080  0.86731587     0.13500
C3236       C  0.95106997  0.03298190  0.84467453    -0.20900
C3237       C  0.92905055  0.05239955  0.84344297    -0.07400
C3238       C  0.92421263  0.06941196  0.86511664     0.13500
C3239       C  0.90195828  0.09151472  0.86554809    -0.24200
H3240       H  0.93536487  0.07724816  0.90446248     0.14700
H3241       H  0.95571128  0.02033251  0.82814902     0.14800
C3242       C  0.98755342  0.00513717  0.86780468    -0.24200
H3243       H  0.90122866  0.10244612  0.88420783     0.05000
H3244       H  0.88132991  0.08235990  0.86296912     0.08200
H3245       H  0.90611286  0.10703853  0.85002888     0.08200
H3246       H  0.98190314  0.98971120  0.88300896     0.08200
H3247       H  0.00831856  0.01335499  0.87173050     0.08200
H3248       H  0.98894432  0.99441735  0.84904926     0.05000
C3249       C  0.05923507  0.90833759  0.91803650    -0.20800
C3250       C  0.03208727  0.91782446  0.91359409    -0.07400
C3251       C  0.01528571  0.90367567  0.89648244     0.13500
C3252       C  0.02538319  0.87925603  0.88553630    -0.20900
C3253       C  0.05182381  0.86848786  0.89150754    -0.07400
C3254       C  0.06929433  0.88369578  0.90739449     0.13500
C3255       C  0.09766290  0.87315878  0.91483636    -0.24200
H3256       H  0.07193145  0.91924668  0.93140595     0.14700
H3257       H  0.01210050  0.86789786  0.87304397     0.14800
C3258       C  0.98660838  0.91417018  0.89009597    -0.24200
H3259       H  0.10781854  0.88705755  0.92841218     0.05000
H3260       H  0.11114105  0.87158573  0.89731768     0.08200
H3261       H  0.09603352  0.85268549  0.92452052     0.08200
H3262       H  0.98783584  0.93525258  0.88164113     0.08200
H3263       H  0.97339879  0.91458056  0.90785491     0.08200
H3264       H  0.97648382  0.90100678  0.87586145     0.05000
loop_ 
_geom_bond_atom_site_label_1 
_geom_bond_atom_site_label_2 
_geom_bond_distance 
_geom_bond_site_symmetry_2 
_ccdc_geom_bond_type 
Zr1           O2   2.440   1_565  S
Zr1           O3   2.446   1_655  S
Zr1           O4   2.447       .  S
Zr1           O7   2.460   1_565  S
Zr1           O9   2.385   1_655  S
Zr1          O10   2.384   1_665  S
Zr1          O11   2.411       .  S
Zr1          O12   2.404   1_565  S
O2           H58   0.990   1_545  S
O2           H66   0.990       .  S
O3           C23   1.286       .  A
O4           C25   1.286       .  A
O5          Zr15   2.407   1_655  S
O5           C24   1.279       .  A
O6          Zr14   2.409   1_554  S
O6           C25   1.280       .  A
O7           C24   1.289       .  A
O8          Zr16   2.421       .  S
O8           C23   1.281       .  A
O9          Zr14   2.395   1_454  S
O9          Zr16   2.376       .  S
O10         Zr15   2.396       .  S
O10         Zr16   2.371   1_545  S
O10          H45   0.965       .  S
O11         Zr14   2.398   1_554  S
O11         Zr31   2.383   1_564  S
O11          H48   0.966       .  S
O12         Zr15   2.386   1_655  S
O12         Zr31   2.390   1_554  S
Zr13         O38   2.442       .  S
Zr13         O32   2.460   1_455  S
Zr13         O40   2.448       .  S
Zr13         O28   2.450   1_545  S
Zr13         O19   2.408       .  S
Zr13         O20   2.416   1_545  S
Zr13         O21   2.379   1_445  S
Zr13         O22   2.386   1_455  S
Zr14         O33   2.435       .  S
Zr14         O26   2.434       .  S
Zr14         O27   2.427   1_655  S
Zr14         O20   2.392   1_655  S
Zr14         O21   2.387       .  S
Zr15         O17   2.435   1_455  S
Zr15         O39   2.438       .  S
Zr15         O41   2.410   1_554  S
Zr15         O19   2.386   1_554  S
Zr15         O22   2.393   1_454  S
Zr16         O42   2.436       .  S
Zr16         O43   2.436       .  S
Zr16         O18   2.437       .  S
Zr16         O19   2.394   1_564  S
Zr16         O20   2.386   1_554  S
O17          H54   0.990   1_655  S
O18          H49   0.990       .  S
O18          H63   0.990       .  S
O20          H46   0.964       .  S
O21         Zr31   2.386   1_565  S
O22         Zr31   2.383       .  S
O22          H47   0.966       .  S
C23        C3189   1.490       .  S
C24        C3205   1.476       .  S
C25        C3221   1.470       .  S
O26          H62   0.989   1_656  S
O27          C29   1.283       .  A
O28          C29   1.286       .  A
C29        C3250   1.474       .  S
O30         Zr31   2.439   1_554  S
O30          H59   0.990   1_554  S
Zr31         O34   2.439       .  S
Zr31         O35   2.437       .  S
Zr31         O36   2.402       .  S
O32          C37   1.288       .  A
O33          H50   0.990       .  S
O33          H65   0.990       .  S
O34          H51   0.990       .  S
O35          H55   0.990       .  S
O35          H64   0.990       .  S
O36          C37   1.279       .  A
C37        C3234   1.490       .  S
O38          H57   0.991       .  S
O38          H61   0.990       .  S
O39          H53   0.990       .  S
O39          H60   0.990       .  S
O40          C44   1.287       .  A
O41          C44   1.279       .  A
O42          H52   0.990       .  S
O43          H56   0.990   1_554  S
C44        C3173   1.497       .  S
C67        C3125   1.501       .  S
C67          N68   1.365       .  A
C67          N72   1.360       .  A
N68          C69   1.359       .  A
C69        C3141   1.480       .  S
C69          N70   1.354       .  A
N70          C71   1.352       .  A
C71        C3154   1.487       .  S
C71          N72   1.358       .  A
C73        C3202   1.490       .  S
C73          N74   1.366       .  A
C73          N78   1.364       .  A
N74          C75   1.362       .  A
C75        C3106   1.485       .  S
C75          N76   1.350       .  A
N76          C77   1.348       .  A
C77        C3157   1.469   1_655  S
C77          N78   1.357       .  A
C79        C3074   1.499       .  S
C79          N80   1.360       .  A
C79          N84   1.368       .  A
N80          C81   1.355       .  A
C81        C3061   1.476       .  S
C81          N82   1.351       .  A
N82          C83   1.355       .  A
C83        C3090   1.497       .  S
C83          N84   1.364       .  A
C85        C3026   1.491       .  S
C85          N86   1.360       .  A
C85          N90   1.362       .  A
N86          C87   1.360       .  A
C87        C3042   1.487       .  S
C87          N88   1.360       .  A
N88          C89   1.356       .  A
C89        C3093   1.484       .  S
C89          N90   1.357       .  A
Zr91         O92   2.442       .  S
Zr91         O93   2.468       .  S
Zr91         O94   2.462       .  S
Zr91         O97   2.452       .  S
Zr91         O99   2.382       .  S
Zr91        O100   2.384       .  S
Zr91        O101   2.416       .  S
Zr91        O102   2.411       .  S
O92         H148   0.990       .  S
O92         H156   0.990       .  S
O93         C113   1.288       .  A
O94         C115   1.289       .  A
O95        Zr105   2.415       .  S
O95         C114   1.282       .  A
O96        Zr104   2.435       .  S
O96         C115   1.283       .  A
O97         C114   1.288       .  A
O98        Zr106   2.405       .  S
O98         C113   1.280       .  A
O99        Zr104   2.400       .  S
O99        Zr106   2.382       .  S
O100       Zr105   2.400       .  S
O100       Zr106   2.376       .  S
O100        H135   0.966       .  S
O101       Zr104   2.400       .  S
O101       Zr121   2.396       .  S
O101        H138   0.965       .  S
O102       Zr105   2.389       .  S
O102       Zr121   2.393       .  S
Zr103       O128   2.441       .  S
Zr103       O122   2.471       .  S
Zr103       O130   2.461       .  S
Zr103       O118   2.462       .  S
Zr103       O109   2.399       .  S
Zr103       O110   2.419       .  S
Zr103       O111   2.386       .  S
Zr103       O112   2.387       .  S
Zr104       O123   2.435       .  S
Zr104       O116   2.436       .  S
Zr104       O117   2.415       .  S
Zr104       O110   2.407       .  S
Zr104       O111   2.401       .  S
Zr105       O107   2.436       .  S
Zr105       O129   2.440       .  S
Zr105       O131   2.420       .  S
Zr105       O109   2.381       .  S
Zr105       O112   2.396       .  S
Zr106       O132   2.435       .  S
Zr106       O133   2.436       .  S
Zr106       O108   2.438       .  S
Zr106       O109   2.381       .  S
Zr106       O110   2.386       .  S
O107        H144   0.990       .  S
O108        H139   0.990       .  S
O108        H153   0.990       .  S
O110        H136   0.964       .  S
O111       Zr121   2.381       .  S
O112       Zr121   2.379       .  S
O112        H137   0.964       .  S
C113       C2965   1.493       .  S
C114       C2994   1.485       .  S
C115       C2981   1.499       .  S
O116        H152   0.990       .  S
O117        C119   1.282       .  A
O118        C119   1.288       .  A
C119       C3109   1.484       .  S
O120       Zr121   2.439       .  S
O120        H149   0.991       .  S
Zr121       O124   2.438       .  S
Zr121       O125   2.439       .  S
Zr121       O126   2.415       .  S
O122        C127   1.289       .  A
O123        H140   0.990       .  S
O123        H155   0.989       .  S
O124        H141   0.990       .  S
O125        H145   0.990       .  S
O125        H154   0.990       .  S
O126        C127   1.280       .  A
C127       C3010   1.490       .  S
O128        H147   0.990       .  S
O128        H151   0.990       .  S
O129        H143   0.990       .  S
O129        H150   0.990       .  S
O130        C134   1.291       .  A
O131        C134   1.282       .  A
O132        H142   0.990       .  S
O133        H146   0.990       .  S
C134       C3077   1.490       .  S
C157       C2914   1.489       .  S
C157        N158   1.358       .  A
C157        N162   1.360       .  A
N158        C159   1.355       .  A
C159       C2946   1.474       .  S
C159        N160   1.359       .  A
N160        C161   1.360       .  A
C161       C2933   1.496       .  S
C161        N162   1.361       .  A
C163       C2898   1.484       .  S
C163        N164   1.360       .  A
C163        N168   1.355       .  A
N164        C165   1.360       .  A
C165       C2949   1.495       .  S
C165        N166   1.359       .  A
N166        C167   1.356       .  A
C167       C2882   1.492       .  S
C167        N168   1.357       .  A
Zr169       O170   2.438   1_455  S
Zr169       O171   2.454       .  S
Zr169       O172   2.474   1_455  S
Zr169       O175   2.463   1_455  S
Zr169       O177   2.391       .  S
Zr169       O178   2.394       .  S
Zr169       O179   2.413   1_455  S
Zr169       O180   2.407   1_455  S
O170        H226   0.990       .  S
O170        H234   0.990       .  S
O171        C191   1.286       .  A
O172        C193   1.291       .  A
O173       Zr183   2.418   1_655  S
O173        C192   1.280       .  A
O174       Zr182   2.443   1_655  S
O174        C193   1.287       .  A
O175        C192   1.290       .  A
O176       Zr184   2.392       .  S
O176        C191   1.276       .  A
O177       Zr182   2.395       .  S
O177       Zr184   2.384       .  S
O178       Zr183   2.394       .  S
O178       Zr184   2.381       .  S
O178        H213   0.965       .  S
O179       Zr182   2.403   1_655  S
O179       Zr199   2.388       .  S
O179        H216   0.966       .  S
O180       Zr183   2.388   1_655  S
O180       Zr199   2.393       .  S
Zr181       O206   2.441       .  S
Zr181       O200   2.451   1_455  S
Zr181       O208   2.449       .  S
Zr181       O196   2.439       .  S
Zr181       O187   2.401       .  S
Zr181       O188   2.414       .  S
Zr181       O189   2.383   1_455  S
Zr181       O190   2.385   1_455  S
Zr182       O201   2.436   1_455  S
Zr182       O194   2.436       .  S
Zr182       O195   2.437       .  S
Zr182       O188   2.403       .  S
Zr182       O189   2.399   1_455  S
Zr183       O185   2.435   1_455  S
Zr183       O207   2.437       .  S
Zr183       O209   2.427       .  S
Zr183       O187   2.384       .  S
Zr183       O190   2.391   1_455  S
Zr184       O210   2.435       .  S
Zr184       O211   2.436       .  S
Zr184       O186   2.437       .  S
Zr184       O187   2.380       .  S
Zr184       O188   2.386       .  S
O185        H222   0.990       .  S
O186        H217   0.990       .  S
O186        H231   0.990       .  S
O188        H214   0.966       .  S
O189       Zr199   2.375       .  S
O190       Zr199   2.380       .  S
O190        H215   0.965       .  S
C191       C2834   1.466       .  S
C192       C2869   1.507       .  S
C193       C2850   1.501       .  S
O194        H230   0.990       .  S
O195        C197   1.285       .  A
O196        C197   1.283       .  A
C197       C2802   1.481       .  S
O198       Zr199   2.437       .  S
O198        H227   0.990       .  S
Zr199       O202   2.438       .  S
Zr199       O203   2.440       .  S
Zr199       O204   2.411       .  S
O200        C205   1.285       .  A
O201        H218   0.990       .  S
O201        H233   0.990       .  S
O202        H219   0.990       .  S
O203        H223   0.990       .  S
O203        H232   0.989       .  S
O204        C205   1.278       .  A
C205       C2930   1.474       .  S
O206        H225   0.990       .  S
O206        H229   0.990       .  S
O207        H221   0.989       .  S
O207        H228   0.990       .  S
O208        C212   1.287       .  A
O209        C212   1.284       .  A
O210        H220   0.990       .  S
O211        H224   0.990       .  S
C212       C2818   1.485       .  S
C235       C2773   1.482       .  S
C235        N236   1.360       .  A
C235        N240   1.365       .  A
N236        C237   1.355       .  A
C237       C2786   1.469       .  S
C237        N238   1.351       .  A
N238        C239   1.355       .  A
C239       C2757   1.484       .  S
C239        N240   1.365       .  A
C241       C2725   1.495       .  S
C241        N242   1.359       .  A
C241        N246   1.368       .  A
N242        C243   1.352       .  A
C243       C2789   1.490       .  S
C243        N244   1.356       .  A
N244        C245   1.360       .  A
C245       C2741   1.491       .  S
C245        N246   1.366       .  A
C247       C2690   1.491       .  S
C247        N248   1.363       .  A
C247        N252   1.365       .  A
N248        C249   1.357       .  A
C249       C2674   1.479       .  S
C249        N250   1.349       .  A
N250        C251   1.350       .  A
C251       C2709   1.476       .  S
C251        N252   1.360       .  A
C253       C3186   1.481       .  S
C253        N254   1.363       .  A
C253        N258   1.357       .  A
N254        C255   1.360       .  A
C255       C2658   1.473       .  S
C255        N256   1.356       .  A
N256        C257   1.355       .  A
C257       C2706   1.484       .  S
C257        N258   1.354       .  A
Zr259       O260   2.440       .  S
Zr259       O261   2.432       .  S
Zr259       O262   2.431       .  S
Zr259       O265   2.422       .  S
Zr259       O267   2.376       .  S
Zr259       O268   2.387       .  S
Zr259       O269   2.405       .  S
Zr259       O270   2.401       .  S
O260        H316   0.991       .  S
O260        H324   0.990       .  S
O261        C281   1.282       .  A
O262        C283   1.283       .  A
O263       Zr273   2.424       .  S
O263        C282   1.283       .  A
O264       Zr272   2.424       .  S
O264        C283   1.282       .  A
O265        C282   1.282       .  A
O266       Zr274   2.417       .  S
O266        C281   1.280       .  A
O267       Zr272   2.394       .  S
O267       Zr274   2.376       .  S
O268       Zr273   2.391       .  S
O268       Zr274   2.373       .  S
O268        H303   0.966       .  S
O269       Zr272   2.396       .  S
O269       Zr289   2.390       .  S
O269        H306   0.965       .  S
O270       Zr273   2.390       .  S
O270       Zr289   2.390       .  S
Zr271       O296   2.441       .  S
Zr271       O290   2.444       .  S
Zr271       O298   2.447       .  S
Zr271       O286   2.445       .  S
Zr271       O277   2.407       .  S
Zr271       O278   2.416       .  S
Zr271       O279   2.382       .  S
Zr271       O280   2.388       .  S
Zr272       O291   2.434       .  S
Zr272       O284   2.437       .  S
Zr272       O285   2.421       .  S
Zr272       O278   2.399       .  S
Zr272       O279   2.391       .  S
Zr273       O275   2.436       .  S
Zr273       O297   2.437       .  S
Zr273       O299   2.432       .  S
Zr273       O277   2.394       .  S
Zr273       O280   2.394       .  S
Zr274       O300   2.435       .  S
Zr274       O301   2.436       .  S
Zr274       O276   2.436       .  S
Zr274       O277   2.397       .  S
Zr274       O278   2.388       .  S
O275        H312   0.990       .  S
O276        H307   0.990       .  S
O276        H321   0.990       .  S
O278        H304   0.964       .  S
O279       Zr289   2.377       .  S
O280       Zr289   2.387       .  S
O280        H305   0.966       .  S
C281       C2661   1.467       .  S
C282       C2594   1.470       .  S
C283       C2610   1.482       .  S
O284        H320   0.990       .  S
O285        C287   1.283       .  A
O286        C287   1.286       .  A
C287       C2645   1.479       .  S
O288       Zr289   2.438       .  S
O288        H317   0.990       .  S
Zr289       O292   2.437       .  S
Zr289       O293   2.440       .  S
Zr289       O294   2.403       .  S
O290        C295   1.283       .  A
O291        H308   0.990       .  S
O291        H323   0.989       .  S
O292        H309   0.990       .  S
O293        H313   0.990       .  S
O293        H322   0.990       .  S
O294        C295   1.277       .  A
C295       C2626   1.470       .  S
O296        H315   0.991       .  S
O296        H319   0.990       .  S
O297        H311   0.990       .  S
O297        H318   0.990       .  S
O298        C302   1.286       .  A
O299        C302   1.284       .  A
O300        H310   0.990       .  S
O301        H314   0.990       .  S
C302       C2770   1.491       .  S
Zr325       O326   2.441       .  S
Zr325       O327   2.454       .  S
Zr325       O328   2.460       .  S
Zr325       O331   2.449       .  S
Zr325       O333   2.381       .  S
Zr325       O334   2.390       .  S
Zr325       O335   2.414       .  S
Zr325       O336   2.397       .  S
O326        H382   0.990       .  S
O326        H390   0.990       .  S
O327        C347   1.287       .  A
O328        C349   1.287       .  A
O329       Zr339   2.408       .  S
O329        C348   1.280       .  A
O330       Zr338   2.411       .  S
O330        C349   1.281       .  A
O331        C348   1.287       .  A
O332       Zr340   2.390       .  S
O332        C347   1.275       .  A
O333       Zr338   2.396       .  S
O333       Zr340   2.384       .  S
O334       Zr339   2.389       .  S
O334       Zr340   2.376       .  S
O334        H369   0.966       .  S
O335       Zr338   2.395       .  S
O335       Zr355   2.398       .  S
O335        H372   0.964       .  S
O336       Zr339   2.379       .  S
O336       Zr355   2.373       .  S
Zr337       O362   2.440       .  S
Zr337       O356   2.458       .  S
Zr337       O364   2.473       .  S
Zr337       O352   2.457       .  S
Zr337       O343   2.402       .  S
Zr337       O344   2.414       .  S
Zr337       O345   2.389       .  S
Zr337       O346   2.388       .  S
Zr338       O357   2.436       .  S
Zr338       O350   2.436       .  S
Zr338       O351   2.411       .  S
Zr338       O344   2.396       .  S
Zr338       O345   2.392       .  S
Zr339       O341   2.437       .  S
Zr339       O363   2.438       .  S
Zr339       O365   2.400       .  S
Zr339       O343   2.384       .  S
Zr339       O346   2.391       .  S
Zr340       O366   2.436       .  S
Zr340       O367   2.437       .  S
Zr340       O342   2.436       .  S
Zr340       O343   2.377       .  S
Zr340       O344   2.377       .  S
O341        H378   0.990       .  S
O342        H373   0.990       .  S
O342        H387   0.990       .  S
O344        H370   0.964       .  S
O345       Zr355   2.383       .  S
O346       Zr355   2.384       .  S
O346        H371   0.966       .  S
C347       C2530   1.487       .  S
C348       C2562   1.473       .  S
C349       C2693   1.489       .  S
O350        H386   0.990       .  S
O351        C353   1.280       .  A
O352        C353   1.288       .  A
C353       C3138   1.478       .  S
O354       Zr355   2.439       .  S
O354        H383   0.991       .  S
Zr355       O358   2.436       .  S
Zr355       O359   2.442       .  S
Zr355       O360   2.393       .  S
O356        C361   1.287       .  A
O357        H374   0.990       .  S
O357        H389   0.990       .  S
O358        H375   0.990       .  S
O359        H379   0.990       .  S
O359        H388   0.989       .  S
O360        C361   1.276       .  A
C361       C2578   1.474       .  S
O362        H381   0.990       .  S
O362        H385   0.990       .  S
O363        H377   0.989       .  S
O363        H384   0.990       .  S
O364        C368   1.290       .  A
O365        C368   1.281       .  A
O366        H376   0.990       .  S
O367        H380   0.990       .  S
C368       C2546   1.486       .  S
C391       C2482   1.477       .  S
C391        N392   1.359       .  A
C391        N396   1.355       .  A
N392        C393   1.357       .  A
C393       C2514   1.481       .  S
C393        N394   1.357       .  A
N394        C395   1.358       .  A
C395       C2498   1.477       .  S
C395        N396   1.355       .  A
C397       C2466   1.495       .  S
C397        N398   1.356       .  A
C397        N402   1.367       .  A
N398        C399   1.351       .  A
C399       C2517   1.468       .  S
C399        N400   1.353       .  A
N400        C401   1.359       .  A
C401       C2450   1.486       .  S
C401        N402   1.368       .  A
Zr403       O404   2.435   1_545  S
Zr403       O405   2.452       .  S
Zr403       O406   2.469   1_545  S
Zr403       O409   2.465       .  S
Zr403       O411   2.382       .  S
Zr403       O412   2.391       .  S
Zr403       O413   2.415   1_545  S
Zr403       O414   2.406       .  S
O404        H460   0.990       .  S
O404        H468   0.990       .  S
O405        C425   1.284       .  A
O406        C427   1.289       .  A
O407       Zr417   2.422       .  S
O407        C426   1.284       .  A
O408       Zr416   2.408       .  S
O408        C427   1.281       .  A
O409        C426   1.290       .  A
O410       Zr418   2.399       .  S
O410        C425   1.277       .  A
O411       Zr416   2.394   1_545  S
O411       Zr418   2.381       .  S
O412       Zr417   2.403       .  S
O412       Zr418   2.378       .  S
O412        H447   0.968       .  S
O413       Zr416   2.403       .  S
O413       Zr433   2.375       .  S
O413        H450   0.961       .  S
O414       Zr417   2.392       .  S
O414       Zr433   2.384   1_545  S
Zr415       O440   2.439       .  S
Zr415       O434   2.452   1_545  S
Zr415       O442   2.436       .  S
Zr415       O430   2.457   1_545  S
Zr415       O421   2.401       .  S
Zr415       O422   2.415       .  S
Zr415       O423   2.371   1_545  S
Zr415       O424   2.391       .  S
Zr416       O435   2.437       .  S
Zr416       O428   2.436       .  S
Zr416       O429   2.427       .  S
Zr416       O422   2.392   1_565  S
Zr416       O423   2.392       .  S
Zr417       O419   2.436       .  S
Zr417       O441   2.438       .  S
Zr417       O443   2.434       .  S
Zr417       O421   2.376       .  S
Zr417       O424   2.402       .  S
Zr418       O444   2.435       .  S
Zr418       O445   2.436       .  S
Zr418       O420   2.438       .  S
Zr418       O421   2.375       .  S
Zr418       O422   2.392       .  S
O419        H456   0.990       .  S
O420        H451   0.990       .  S
O420        H465   0.991       .  S
O422        H448   0.963       .  S
O423       Zr433   2.388       .  S
O424       Zr433   2.377   1_545  S
O424        H449   0.963       .  S
C425       C3045   1.476       .  S
C426       C2402   1.497       .  S
C427       C2501   1.475       .  S
O428        H464   0.990       .  S
O429        C431   1.284       .  A
O430        C431   1.287       .  A
C431       C2418   1.491       .  S
O432       Zr433   2.439       .  S
O432        H461   0.990       .  S
Zr433       O436   2.437       .  S
Zr433       O437   2.438       .  S
Zr433       O438   2.396       .  S
O434        C439   1.284       .  A
O435        H452   0.990       .  S
O435        H467   0.990       .  S
O436        H453   0.990       .  S
O437        H457   0.989       .  S
O437        H466   0.990   1_565  S
O438        C439   1.276       .  A
C439       C2386   1.469       .  S
O440        H459   0.989       .  S
O440        H463   0.991   1_545  S
O441        H455   0.990       .  S
O441        H462   0.990       .  S
O442        C446   1.287       .  A
O443        C446   1.284       .  A
O444        H454   0.990       .  S
O445        H458   0.991       .  S
C446       C2434   1.492       .  S
C469       C2338   1.493       .  S
C469        N470   1.353       .  A
C469        N474   1.362       .  A
N470        C471   1.356       .  A
C471       C2354   1.486       .  S
C471        N472   1.357       .  A
N472        C473   1.357       .  A
C473       C2370   1.485       .  S
C473        N474   1.359       .  A
C475       C2581   1.498       .  S
C475        N476   1.356       .  A
C475        N480   1.363       .  A
N476        C477   1.356       .  A
C477       C2837   1.487       .  S
C477        N478   1.356       .  A
N478        C479   1.360       .  A
C479       C2373   1.502       .  S
C479        N480   1.361       .  A
C481       C2306   1.505       .  S
C481        N482   1.363       .  A
C481        N486   1.364       .  A
N482        C483   1.360       .  A
C483       C2322   1.481       .  S
C483        N484   1.354       .  A
N484        C485   1.356       .  A
C485       C2997   1.486       .  S
C485        N486   1.361       .  A
C487       C2437   1.481       .  S
C487        N488   1.364       .  A
C487        N492   1.357       .  A
N488        C489   1.361       .  A
C489       C2325   1.489       .  S
C489        N490   1.354       .  A
N490        C491   1.356       .  A
C491       C2565   1.479       .  S
C491        N492   1.354       .  A
C493       C2274   1.460       .  S
C493        N494   1.355       .  A
C493        N498   1.353       .  A
N494        C495   1.357       .  A
C495       C2290   1.487       .  S
C495        N496   1.358       .  A
N496        C497   1.359       .  A
C497       C2261   1.476       .  S
C497        N498   1.355       .  A
C499       C2245   1.505       .  S
C499        N500   1.357       .  A
C499        N504   1.368       .  A
N500        C501   1.354       .  A
C501       C2293   1.474       .  S
C501        N502   1.353       .  A
N502        C503   1.357       .  A
C503       C2226   1.495       .  S
C503        N504   1.365       .  A
Zr505       O506   2.438       .  S
Zr505       O507   2.432       .  S
Zr505       O508   2.475       .  S
Zr505       O511   2.455       .  S
Zr505       O513   2.383       .  S
Zr505       O514   2.393       .  S
Zr505       O515   2.408       .  S
Zr505       O516   2.405       .  S
O506        H562   0.990       .  S
O506        H570   0.990       .  S
O507        C527   1.282       .  A
O508        C529   1.291       .  A
O509       Zr519   2.396       .  S
O509        C528   1.278       .  A
O510       Zr518   2.414       .  S
O510        C529   1.282       .  A
O511        C528   1.288       .  A
O512       Zr520   2.419       .  S
O512        C527   1.283       .  A
O513       Zr518   2.391       .  S
O513       Zr520   2.374       .  S
O514       Zr519   2.397       .  S
O514       Zr520   2.370       .  S
O514        H549   0.968       .  S
O515       Zr518   2.397       .  S
O515       Zr535   2.394       .  S
O515        H552   0.966       .  S
O516       Zr519   2.398       .  S
O516       Zr535   2.388       .  S
Zr517       O542   2.438       .  S
Zr517       O536   2.464       .  S
Zr517       O544   2.460       .  S
Zr517       O532   2.452       .  S
Zr517       O523   2.401       .  S
Zr517       O524   2.425       .  S
Zr517       O525   2.385       .  S
Zr517       O526   2.383       .  S
Zr518       O537   2.436       .  S
Zr518       O530   2.434       .  S
Zr518       O531   2.413       .  S
Zr518       O524   2.399       .  S
Zr518       O525   2.391       .  S
Zr519       O521   2.437       .  S
Zr519       O543   2.439       .  S
Zr519       O545   2.430       .  S
Zr519       O523   2.374       .  S
Zr519       O526   2.386       .  S
Zr520       O546   2.435       .  S
Zr520       O547   2.437       .  S
Zr520       O522   2.437       .  S
Zr520       O523   2.389       .  S
Zr520       O524   2.391       .  S
O521        H558   0.990       .  S
O522        H553   0.990       .  S
O522        H567   0.990       .  S
O524        H550   0.965       .  S
O525       Zr535   2.382       .  S
O526       Zr535   2.390       .  S
O526        H551   0.964       .  S
C527       C2213   1.487       .  S
C528       C2901   1.466       .  S
C529       C2309   1.499       .  S
O530        H566   0.990       .  S
O531        C533   1.282       .  A
O532        C533   1.287       .  A
C533       C2357   1.487       .  S
O534       Zr535   2.438       .  S
O534        H563   0.990       .  S
Zr535       O538   2.437       .  S
Zr535       O539   2.439       .  S
Zr535       O540   2.401       .  S
O536        C541   1.288       .  A
O537        H554   0.990       .  S
O537        H569   0.990       .  S
O538        H555   0.990       .  S
O539        H559   0.990       .  S
O539        H568   0.990       .  S
O540        C541   1.277       .  A
C541       C2242   1.487       .  S
O542        H561   0.990       .  S
O542        H565   0.990       .  S
O543        H557   0.990       .  S
O543        H564   0.990       .  S
O544        C548   1.287       .  A
O545        C548   1.283       .  A
O546        H556   0.990       .  S
O547        H560   0.990       .  S
C548       C2469   1.486       .  S
C571       C2533   1.491       .  S
C571        N572   1.361       .  A
C571        N576   1.359       .  A
N572        C573   1.356       .  A
C573       C2194   1.496       .  S
C573        N574   1.357       .  A
N574        C575   1.357       .  A
C575       C2181   1.470       .  S
C575        N576   1.358       .  A
C577       C2162   1.484       .  S
C577        N578   1.362       .  A
C577        N582   1.355       .  A
N578        C579   1.361       .  A
C579       C2197   1.494       .  S
C579        N580   1.359       .  A
N580        C581   1.357       .  A
C581       C3170   1.474       .  S
C581        N582   1.353       .  A
C583       C2130   1.483       .  S
C583        N584   1.356       .  A
C583        N588   1.358       .  A
N584        C585   1.358       .  A
C585       C2146   1.492       .  S
C585        N586   1.364       .  A
N586        C587   1.365       .  A
C587       C2114   1.505       .  S
C587        N588   1.360       .  A
C589       C2821   1.487       .  S
C589        N590   1.359       .  A
C589        N594   1.362       .  A
N590        C591   1.358       .  A
C591       C2149   1.481       .  S
C591        N592   1.358       .  A
N592        C593   1.360       .  A
C593       C2098   1.477       .  S
C593        N594   1.359       .  A
Zr595       O596   2.437       .  S
Zr595       O597   2.452       .  S
Zr595       O598   2.478       .  S
Zr595       O601   2.462       .  S
Zr595       O603   2.388       .  S
Zr595       O604   2.394       .  S
Zr595       O605   2.414       .  S
Zr595       O606   2.410       .  S
O596        H652   0.990       .  S
O596        H660   0.990       .  S
O597        C617   1.285       .  A
O598        C619   1.291       .  A
O599       Zr609   2.415       .  S
O599        C618   1.283       .  A
O600       Zr608   2.430       .  S
O600        C619   1.284       .  A
O601        C618   1.289       .  A
O602       Zr610   2.387       .  S
O602        C617   1.275       .  A
O603       Zr608   2.394       .  S
O603       Zr610   2.384       .  S
O604       Zr609   2.391       .  S
O604       Zr610   2.381       .  S
O604        H639   0.966       .  S
O605       Zr608   2.401       .  S
O605       Zr625   2.366       .  S
O605        H642   0.962       .  S
O606       Zr609   2.391       .  S
O606       Zr625   2.391       .  S
Zr607       O632   2.440       .  S
Zr607       O626   2.454       .  S
Zr607       O634   2.447       .  S
Zr607       O622   2.458       .  S
Zr607       O613   2.400       .  S
Zr607       O614   2.410       .  S
Zr607       O615   2.379       .  S
Zr607       O616   2.386       .  S
Zr608       O627   2.436       .  S
Zr608       O620   2.437       .  S
Zr608       O621   2.425       .  S
Zr608       O614   2.394       .  S
Zr608       O615   2.400       .  S
Zr609       O611   2.435       .  S
Zr609       O633   2.440       .  S
Zr609       O635   2.420       .  S
Zr609       O613   2.384       .  S
Zr609       O616   2.387       .  S
Zr610       O636   2.435       .  S
Zr610       O637   2.436       .  S
Zr610       O612   2.439       .  S
Zr610       O613   2.379       .  S
Zr610       O614   2.382       .  S
O611        H648   0.990       .  S
O612        H643   0.990       .  S
O612        H657   0.990       .  S
O614        H640   0.963       .  S
O615       Zr625   2.386       .  S
O616       Zr625   2.377       .  S
O616        H641   0.966       .  S
C617       C2341   1.464       .  S
C618       C2133   1.500       .  S
C619       C2082   1.487       .  S
O620        H656   0.990       .  S
O621        C623   1.284       .  A
O622        C623   1.287       .  A
C623       C2066   1.486       .  S
O624       Zr625   2.439       .  S
O624        H653   0.990       .  S
Zr625       O628   2.436       .  S
Zr625       O629   2.440       .  S
Zr625       O630   2.388       .  S
O626        C631   1.285       .  A
O627        H644   0.990       .  S
O627        H659   0.990       .  S
O628        H645   0.990       .  S
O629        H649   0.990       .  S
O629        H658   0.990       .  S
O630        C631   1.275       .  A
C631       C2165   1.465       .  S
O632        H651   0.991       .  S
O632        H655   0.989       .  S
O633        H647   0.990       .  S
O633        H654   0.990       .  S
O634        C638   1.286       .  A
O635        C638   1.283       .  A
O636        H646   0.990       .  S
O637        H650   0.990       .  S
C638       C2053   1.479       .  S
Zr661       O662   2.442       .  S
Zr661       O663   2.439       .  S
Zr661       O664   2.444       .  S
Zr661       O667   2.439   1_565  S
Zr661       O669   2.382       .  S
Zr661       O670   2.386   1_565  S
Zr661       O671   2.412       .  S
Zr661       O672   2.401   1_565  S
O662        H718   0.990       .  S
O662        H726   0.990       .  S
O663        C683   1.282       .  A
O664        C685   1.285       .  A
O665       Zr675   2.417       .  S
O665        C684   1.281       .  A
O666       Zr674   2.419   1_556  S
O666        C685   1.281       .  A
O667        C684   1.284       .  A
O668       Zr676   2.404       .  S
O668        C683   1.279       .  A
O669       Zr674   2.399   1_556  S
O669       Zr676   2.379       .  S
O670       Zr675   2.391       .  S
O670       Zr676   2.376   1_545  S
O670        H705   0.966       .  S
O671       Zr674   2.401   1_556  S
O671       Zr691   2.391   1_566  S
O671        H708   0.964       .  S
O672       Zr675   2.393       .  S
O672       Zr691   2.390   1_556  S
Zr673       O698   2.442   1_545  S
Zr673       O692   2.439       .  S
Zr673       O700   2.436       .  S
Zr673       O688   2.445   1_545  S
Zr673       O679   2.407       .  S
Zr673       O680   2.409   1_545  S
Zr673       O681   2.379   1_545  S
Zr673       O682   2.386       .  S
Zr674       O693   2.437       .  S
Zr674       O686   2.434       .  S
Zr674       O687   2.427       .  S
Zr674       O680   2.396       .  S
Zr674       O681   2.389       .  S
Zr675       O677   2.435       .  S
Zr675       O699   2.438       .  S
Zr675       O701   2.418   1_556  S
Zr675       O679   2.396   1_556  S
Zr675       O682   2.393   1_556  S
Zr676       O702   2.437       .  S
Zr676       O703   2.435       .  S
Zr676       O678   2.438       .  S
Zr676       O679   2.396   1_566  S
Zr676       O680   2.384   1_556  S
O677        H714   0.990       .  S
O678        H709   0.990       .  S
O678        H723   0.990       .  S
O680        H706   0.964       .  S
O681       Zr691   2.380   1_565  S
O682       Zr691   2.380       .  S
O682        H707   0.966       .  S
C683       C2021   1.481       .  S
C684       C2034   1.466       .  S
C685       C2002   1.473       .  S
O686        H722   0.989   1_554  S
O687        C689   1.284       .  A
O688        C689   1.285       .  A
C689       C2754   1.479       .  S
O690       Zr691   2.438   1_556  S
O690        H719   0.991   1_556  S
Zr691       O694   2.437       .  S
Zr691       O695   2.440       .  S
Zr691       O696   2.402       .  S
O692        C697   1.284       .  A
O693        H710   0.990       .  S
O693        H725   0.990       .  S
O694        H711   0.990   1_545  S
O695        H715   0.990       .  S
O695        H724   0.989       .  S
O696        C697   1.278       .  A
C697       C1986   1.479       .  S
O698        H717   0.990   1_565  S
O698        H721   0.991       .  S
O699        H713   0.990       .  S
O699        H720   0.990       .  S
O700        C704   1.284       .  A
O701        C704   1.280       .  A
O702        H712   0.990       .  S
O703        H716   0.990   1_556  S
C704       C2178   1.493       .  S
C727       C3013   1.506       .  S
C727        N728   1.368       .  A
C727        N732   1.362       .  A
N728        C729   1.369       .  A
C729       C2853   1.496       .  S
C729        N730   1.358       .  A
N730        C731   1.357       .  A
C731       C1970   1.501       .  S
C731        N732   1.356       .  A
C733       C1957   1.503       .  S
C733        N734   1.366       .  A
C733        N738   1.365       .  A
N734        C735   1.362       .  A
C735       C1973   1.479       .  S
C735        N736   1.352       .  A
N736        C737   1.354       .  A
C737       C1938   1.492       .  S
C737        N738   1.362       .  A
C739       C2962   1.477       .  S
C739        N740   1.362       .  A
C739        N744   1.360       .  A
N740        C741   1.359       .  A
C741       C1925   1.482       .  S
C741        N742   1.352       .  A
N742        C743   1.357       .  A
C743       C1989   1.494       .  S
C743        N744   1.361       .  A
C745       C1906   1.500       .  S
C745        N746   1.362       .  A
C745        N750   1.366       .  A
N746        C747   1.358       .  A
C747       C2421   1.477       .  S
C747        N748   1.354       .  A
N748        C749   1.355       .  A
C749       C1922   1.496       .  S
C749        N750   1.364       .  A
C751       C2613   1.481       .  S
C751        N752   1.361       .  A
C751        N756   1.352       .  A
N752        C753   1.361       .  A
C753       C2805   1.499       .  S
C753        N754   1.361       .  A
N754        C755   1.357       .  A
C755       C1890   1.491       .  S
C755        N756   1.354       .  A
C757       C1874   1.486       .  S
C757        N758   1.356       .  A
C757        N762   1.363       .  A
N758        C759   1.352       .  A
C759       C1893   1.476       .  S
C759        N760   1.353       .  A
N760        C761   1.357       .  A
C761       C1861   1.475       .  S
C761        N762   1.364       .  A
C763       C1829   1.488       .  S
C763        N764   1.353       .  A
C763        N768   1.358       .  A
N764        C765   1.353       .  A
C765       C1842   1.470       .  S
C765        N766   1.356       .  A
N766        C767   1.358       .  A
C767       C3218   1.473       .  S
C767        N768   1.357       .  A
C769       C1810   1.486       .  S
C769        N770   1.357       .  A
C769        N774   1.356       .  A
N770        C771   1.355       .  A
C771       C2005   1.470       .  S
C771        N772   1.357       .  A
N772        C773   1.357       .  A
C773       C1845   1.474       .  S
C773        N774   1.355       .  A
Zr775       O776   2.443       .  S
Zr775       O777   2.424       .  S
Zr775       O778   2.428       .  S
Zr775       O781   2.448       .  S
Zr775       O783   2.382       .  S
Zr775       O784   2.392       .  S
Zr775       O785   2.400       .  S
Zr775       O786   2.391       .  S
O776        H832   0.991       .  S
O776        H840   0.990       .  S
O777        C797   1.282       .  A
O778        C799   1.284       .  A
O779       Zr789   2.423       .  S
O779        C798   1.283       .  A
O780       Zr788   2.441       .  S
O780        C799   1.285       .  A
O781        C798   1.285       .  A
O782       Zr790   2.411       .  S
O782        C797   1.280       .  A
O783       Zr788   2.387       .  S
O783       Zr790   2.381       .  S
O784       Zr789   2.394       .  S
O784       Zr790   2.384       .  S
O784        H819   0.965       .  S
O785       Zr788   2.393       .  S
O785       Zr805   2.388       .  S
O785        H822   0.966       .  S
O786       Zr789   2.389       .  S
O786       Zr805   2.375       .  S
Zr787       O812   2.439       .  S
Zr787       O806   2.436       .  S
Zr787       O814   2.465       .  S
Zr787       O802   2.459       .  S
Zr787       O793   2.403       .  S
Zr787       O794   2.412       .  S
Zr787       O795   2.387       .  S
Zr787       O796   2.384       .  S
Zr788       O807   2.434       .  S
Zr788       O800   2.436       .  S
Zr788       O801   2.419       .  S
Zr788       O794   2.405       .  S
Zr788       O795   2.398       .  S
Zr789       O791   2.435       .  S
Zr789       O813   2.436       .  S
Zr789       O815   2.426       .  S
Zr789       O793   2.390       .  S
Zr789       O796   2.394       .  S
Zr790       O816   2.438       .  S
Zr790       O817   2.436       .  S
Zr790       O792   2.436       .  S
Zr790       O793   2.392       .  S
Zr790       O794   2.390       .  S
O791        H828   0.990       .  S
O792        H823   0.991       .  S
O792        H837   0.990       .  S
O794        H820   0.966       .  S
O795       Zr805   2.378       .  S
O796       Zr805   2.382       .  S
O796        H821   0.965       .  S
C797       C2885   1.475       .  S
C798       C1877   1.476       .  S
C799       C1909   1.489       .  S
O800        H836   0.990       .  S
O801        C803   1.282       .  A
O802        C803   1.288       .  A
C803       C2738   1.483       .  S
O804       Zr805   2.439       .  S
O804        H833   0.990       .  S
Zr805       O808   2.438       .  S
Zr805       O809   2.439       .  S
Zr805       O810   2.393       .  S
O806        C811   1.283       .  A
O807        H824   0.990       .  S
O807        H839   0.990       .  S
O808        H825   0.990       .  S
O809        H829   0.989       .  S
O809        H838   0.991       .  S
O810        C811   1.277       .  A
C811       C1826   1.468       .  S
O812        H831   0.990       .  S
O812        H835   0.991       .  S
O813        H827   0.990       .  S
O813        H834   0.990       .  S
O814        C818   1.290       .  A
O815        C818   1.284       .  A
O816        H826   0.990       .  S
O817        H830   0.990       .  S
C818       C1954   1.506       .  S
C841       C2210   1.491       .  S
C841        N842   1.361       .  A
C841        N846   1.355       .  A
N842        C843   1.363       .  A
C843       C1794   1.488       .  S
C843        N844   1.361       .  A
N844        C845   1.359       .  A
C845       C2629   1.476       .  S
C845        N846   1.353       .  A
C847       C2549   1.481       .  S
C847        N848   1.360       .  A
C847        N852   1.356       .  A
N848        C849   1.361       .  A
C849       C1797   1.492       .  S
C849        N850   1.361       .  A
N850        C851   1.358       .  A
C851       C1781   1.473       .  S
C851        N852   1.353       .  A
Zr853       O854   2.442       .  S
Zr853       O855   2.440   1_556  S
Zr853       O856   2.459       .  S
Zr853       O859   2.431       .  S
Zr853       O861   2.382   1_556  S
Zr853       O862   2.391       .  S
Zr853       O863   2.406       .  S
Zr853       O864   2.401       .  S
O854        H910   0.990       .  S
O854        H918   0.990       .  S
O855        C875   1.283       .  A
O856        C877   1.287       .  A
O857       Zr867   2.408       .  S
O857        C876   1.280       .  A
O858       Zr866   2.431       .  S
O858        C877   1.284   1_554  A
O859        C876   1.285       .  A
O860       Zr868   2.415       .  S
O860        C875   1.281       .  A
O861       Zr866   2.401       .  S
O861       Zr868   2.386       .  S
O862       Zr867   2.389       .  S
O862       Zr868   2.369   1_556  S
O862        H897   0.967       .  S
O863       Zr866   2.395   1_556  S
O863       Zr883   2.381       .  S
O863        H900   0.965       .  S
O864       Zr867   2.389       .  S
O864       Zr883   2.380       .  S
Zr865       O890   2.442       .  S
Zr865       O884   2.477   1_554  S
Zr865       O892   2.456       .  S
Zr865       O880   2.460       .  S
Zr865       O871   2.412       .  S
Zr865       O872   2.419       .  S
Zr865       O873   2.387   1_554  S
Zr865       O874   2.383   1_554  S
Zr866       O885   2.437       .  S
Zr866       O878   2.435       .  S
Zr866       O879   2.425       .  S
Zr866       O872   2.396       .  S
Zr866       O873   2.401   1_554  S
Zr867       O869   2.435       .  S
Zr867       O891   2.438       .  S
Zr867       O893   2.422       .  S
Zr867       O871   2.389   1_556  S
Zr867       O874   2.385       .  S
Zr868       O894   2.435       .  S
Zr868       O895   2.436       .  S
Zr868       O870   2.439       .  S
Zr868       O871   2.400       .  S
Zr868       O872   2.381       .  S
O869        H906   0.990       .  S
O870        H901   0.990       .  S
O870        H915   0.990       .  S
O872        H898   0.962       .  S
O873       Zr883   2.385       .  S
O874       Zr883   2.383       .  S
O874        H899   0.965       .  S
C875       C2722   1.488       .  S
C876       C2277   1.474       .  S
C877       C1730   1.487       .  S
O878        H914   0.990       .  S
O879        C881   1.284       .  A
O880        C881   1.289       .  A
C881       C1778   1.481       .  S
O882       Zr883   2.438       .  S
O882        H911   0.990       .  S
Zr883       O886   2.436       .  S
Zr883       O887   2.441       .  S
Zr883       O888   2.389       .  S
O884        C889   1.290       .  A
O885        H902   0.990       .  S
O885        H917   0.990       .  S
O886        H903   0.990       .  S
O887        H907   0.990       .  S
O887        H916   0.990       .  S
O888        C889   1.275       .  A
C889       C1762   1.481       .  S
O890        H909   0.990       .  S
O890        H913   0.990       .  S
O891        H905   0.990   1_556  S
O891        H912   0.990       .  S
O892        C896   1.287       .  A
O893        C896   1.282   1_556  A
O894        H904   0.990       .  S
O895        H908   0.990       .  S
C896       C1746   1.486       .  S
Zr919       O920   2.442   1_545  S
Zr919       O921   2.458       .  S
Zr919       O922   2.454   1_545  S
Zr919       O925   2.444   1_445  S
Zr919       O927   2.385       .  S
Zr919       O928   2.392       .  S
Zr919       O929   2.415   1_545  S
Zr919       O930   2.398   1_445  S
O920        H976   0.990       .  S
O920        H984   0.990       .  S
O921        C941   1.286       .  A
O922        C943   1.287       .  A
O923       Zr933   2.423       .  S
O923        C942   1.283   1_545  A
O924       Zr932   2.422   1_565  S
O924        C943   1.282       .  A
O925        C942   1.286       .  A
O926       Zr934   2.405       .  S
O926        C941   1.280       .  A
O927       Zr932   2.399       .  S
O927       Zr934   2.383       .  S
O928       Zr933   2.388   1_455  S
O928       Zr934   2.379       .  S
O928        H963   0.966   1_455  S
O929       Zr932   2.403   1_565  S
O929       Zr949   2.383       .  S
O929        H966   0.964       .  S
O930       Zr933   2.381   1_565  S
O930       Zr949   2.375   1_655  S
Zr931       O956   2.441       .  S
Zr931       O950   2.462   1_545  S
Zr931       O958   2.438       .  S
Zr931       O946   2.446   1_655  S
Zr931       O937   2.413       .  S
Zr931       O938   2.413   1_655  S
Zr931       O939   2.377   1_645  S
Zr931       O940   2.386   1_545  S
Zr932       O951   2.435   1_545  S
Zr932       O944   2.435       .  S
Zr932       O945   2.426       .  S
Zr932       O938   2.394       .  S
Zr932       O939   2.398   1_545  S
Zr933       O935   2.435       .  S
Zr933       O957   2.439       .  S
Zr933       O959   2.416       .  S
Zr933       O937   2.393       .  S
Zr933       O940   2.397   1_545  S
Zr934       O960   2.435   1_455  S
Zr934       O961   2.436       .  S
Zr934       O936   2.438       .  S
Zr934       O937   2.397   1_455  S
Zr934       O938   2.385       .  S
O935        H972   0.991       .  S
O936        H967   0.990       .  S
O936        H981   0.990       .  S
O938        H964   0.964       .  S
O939       Zr949   2.383       .  S
O940       Zr949   2.379   1_655  S
O940        H965   0.966       .  S
C941       C1682   1.493       .  S
C942       C1717   1.475       .  S
C943       C1701   1.480       .  S
O944        H980   0.990       .  S
O945        C947   1.284       .  A
O946        C947   1.286       .  A
C947       C2677   1.480       .  S
O948       Zr949   2.438       .  S
O948        H977   0.990       .  S
Zr949       O952   2.436       .  S
Zr949       O953   2.440   1_455  S
Zr949       O954   2.397   1_455  S
O950        C955   1.287       .  A
O951        H968   0.990       .  S
O951        H983   0.990       .  S
O952        H969   0.990       .  S
O953        H973   0.990       .  S
O953        H982   0.990       .  S
O954        C955   1.277       .  A
C955       C1858   1.478       .  S
O956        H975   0.990       .  S
O956        H979   0.990       .  S
O957        H971   0.990       .  S
O957        H978   0.990       .  S
O958        C962   1.283       .  A
O959        C962   1.281       .  A
O960        H970   0.990       .  S
O961        H974   0.990       .  S
C962       C3058   1.473       .  S
C985       C2642   1.480       .  S
C985        N986   1.359       .  A
C985        N990   1.362       .  A
N986        C987   1.354       .  A
C987       C1666   1.473       .  S
C987        N988   1.352       .  A
N988        C989   1.356       .  A
C989       C2389   1.484       .  S
C989        N990   1.358       .  A
C991       C1650   1.503       .  S
C991        N992   1.368       .  A
C991        N996   1.357       .  A
N992        C993   1.367       .  A
C993       C1698   1.489       .  S
C993        N994   1.357       .  A
N994        C995   1.351       .  A
C995       C1669   1.471       .  S
C995        N996   1.351       .  A
C997       C1765   1.499       .  S
C997        N998   1.361       .  A
C997       N1002   1.365       .  A
N998        C999   1.357       .  A
C999       C1634   1.479       .  S
C999       N1000   1.355       .  A
N1000      C1001   1.355       .  A
C1001      C2085   1.491       .  S
C1001      N1002   1.362       .  A
C1003      C2037   1.468       .  S
C1003      N1004   1.361       .  A
C1003      N1008   1.356       .  A
N1004      C1005   1.363       .  A
C1005      C1618   1.485       .  S
C1005      N1006   1.357       .  A
N1006      C1007   1.354       .  A
C1007      C1637   1.472       .  S
C1007      N1008   1.353       .  A
C1009      C1685   1.474       .  S
C1009      N1010   1.360       .  A
C1009      N1014   1.360       .  A
N1010      C1011   1.356       .  A
C1011      C1602   1.480       .  S
C1011      N1012   1.354       .  A
N1012      C1013   1.357       .  A
C1013      C2050   1.480       .  S
C1013      N1014   1.362       .  A
C1015      C2866   1.488       .  S
C1015      N1016   1.364       .  A
C1015      N1020   1.361       .  A
N1016      C1017   1.360       .  A
C1017      C1586   1.485       .  S
C1017      N1018   1.357       .  A
N1018      C1019   1.355       .  A
C1019      C1605   1.486       .  S
C1019      N1020   1.360       .  A
C1021      C2978   1.505       .  S
C1021      N1022   1.364       .  A
C1021      N1026   1.372       .  A
N1022      C1023   1.358       .  A
C1023      C1570   1.502       .  S
C1023      N1024   1.355       .  A
N1024      C1025   1.358       .  A
C1025      C1749   1.503       .  S
C1025      N1026   1.369       .  A
C1027      C1538   1.504       .  S
C1027      N1028   1.360       .  A
C1027      N1032   1.364       .  A
N1028      C1029   1.356       .  A
C1029      C1573   1.479       .  S
C1029      N1030   1.357       .  A
N1030      C1031   1.360       .  A
C1031      C1554   1.491       .  S
C1031      N1032   1.362       .  A
Zr1033     O1034   2.439       .  S
Zr1033     O1035   2.453       .  S
Zr1033     O1036   2.465       .  S
Zr1033     O1039   2.458       .  S
Zr1033     O1041   2.387       .  S
Zr1033     O1042   2.389       .  S
Zr1033     O1043   2.416       .  S
Zr1033     O1044   2.405       .  S
O1034      H1090   0.990       .  S
O1034      H1098   0.990       .  S
O1035      C1055   1.285       .  A
O1036      C1057   1.289       .  A
O1037     Zr1047   2.419       .  S
O1037      C1056   1.282       .  A
O1038     Zr1046   2.426       .  S
O1038      C1057   1.285       .  A
O1039      C1056   1.288       .  A
O1040     Zr1048   2.396       .  S
O1040      C1055   1.277       .  A
O1041     Zr1046   2.396       .  S
O1041     Zr1048   2.381       .  S
O1042     Zr1047   2.391       .  S
O1042     Zr1048   2.380       .  S
O1042      H1077   0.967       .  S
O1043     Zr1046   2.404       .  S
O1043     Zr1063   2.382       .  S
O1043      H1080   0.963       .  S
O1044     Zr1047   2.386       .  S
O1044     Zr1063   2.389       .  S
Zr1045     O1070   2.440       .  S
Zr1045     O1064   2.473       .  S
Zr1045     O1072   2.476       .  S
Zr1045     O1060   2.472       .  S
Zr1045     O1051   2.402       .  S
Zr1045     O1052   2.421       .  S
Zr1045     O1053   2.384       .  S
Zr1045     O1054   2.391       .  S
Zr1046     O1065   2.435       .  S
Zr1046     O1058   2.437       .  S
Zr1046     O1059   2.422       .  S
Zr1046     O1052   2.399       .  S
Zr1046     O1053   2.396       .  S
Zr1047     O1049   2.435       .  S
Zr1047     O1071   2.440       .  S
Zr1047     O1073   2.409       .  S
Zr1047     O1051   2.384       .  S
Zr1047     O1054   2.395       .  S
Zr1048     O1074   2.435       .  S
Zr1048     O1075   2.436       .  S
Zr1048     O1050   2.436       .  S
Zr1048     O1051   2.380       .  S
Zr1048     O1052   2.382       .  S
O1049      H1086   0.990       .  S
O1050      H1081   0.990       .  S
O1050      H1095   0.990       .  S
O1052      H1078   0.964       .  S
O1053     Zr1063   2.381       .  S
O1054     Zr1063   2.381       .  S
O1054      H1079   0.965       .  S
C1055      C3029   1.471       .  S
C1056      C1525   1.486       .  S
C1057      C1621   1.490       .  S
O1058      H1094   0.990       .  S
O1059      C1061   1.283       .  A
O1060      C1061   1.291       .  A
C1061      C2229   1.491       .  S
O1062     Zr1063   2.438       .  S
O1062      H1091   0.991       .  S
Zr1063     O1066   2.437       .  S
Zr1063     O1067   2.439       .  S
Zr1063     O1068   2.397       .  S
O1064      C1069   1.289       .  A
O1065      H1082   0.990       .  S
O1065      H1097   0.990       .  S
O1066      H1083   0.990       .  S
O1067      H1087   0.989       .  S
O1067      H1096   0.990       .  S
O1068      C1069   1.276       .  A
C1069      C1557   1.477       .  S
O1070      H1089   0.990       .  S
O1070      H1093   0.990       .  S
O1071      H1085   0.990       .  S
O1071      H1092   0.990       .  S
O1072      C1076   1.291       .  A
O1073      C1076   1.280       .  A
O1074      H1084   0.990       .  S
O1075      H1088   0.990       .  S
C1076      C1589   1.483       .  S
C1099      C1490   1.494       .  S
C1099      N1100   1.364       .  A
C1099      N1104   1.357       .  A
N1100      C1101   1.363       .  A
C1101      C3253   1.485       .  S
C1101      N1102   1.357       .  A
N1102      C1103   1.354       .  A
C1103      C1509   1.487       .  S
C1103      N1104   1.357       .  A
C1105      C1458   1.486       .  S
C1105      N1106   1.362       .  A
C1105      N1110   1.358       .  A
N1106      C1107   1.363       .  A
C1107      C1474   1.491       .  S
C1107      N1108   1.358       .  A
N1108      C1109   1.356       .  A
C1109      C1506   1.497       .  S
C1109      N1110   1.353       .  A
C1111      C3237   1.502       .  S
C1111      N1112   1.363       .  A
C1111      N1116   1.358       .  A
N1112      C1113   1.366       .  A
C1113      C1522   1.499       .  S
C1113      N1114   1.356       .  A
N1114      C1115   1.355       .  A
C1115      C1442   1.475       .  S
C1115      N1116   1.354       .  A
C1117      C1714   1.470       .  S
C1117      N1118   1.358       .  A
C1117      N1122   1.354       .  A
N1118      C1119   1.358       .  A
C1119      C1426   1.463       .  S
C1119      N1120   1.357       .  A
N1120      C1121   1.354       .  A
C1121      C1445   1.470       .  S
C1121      N1122   1.353       .  A
Zr1123     O1124   2.442       .  S
Zr1123     O1125   2.440       .  S
Zr1123     O1126   2.436       .  S
Zr1123     O1129   2.429       .  S
Zr1123     O1131   2.382       .  S
Zr1123     O1132   2.385       .  S
Zr1123     O1133   2.411       .  S
Zr1123     O1134   2.400       .  S
O1124      H1180   0.990       .  S
O1124      H1188   0.991       .  S
O1125      C1145   1.283       .  A
O1126      C1147   1.282       .  A
O1127     Zr1137   2.413       .  S
O1127      C1146   1.280       .  A
O1128     Zr1136   2.433       .  S
O1128      C1147   1.283       .  A
O1129      C1146   1.282       .  A
O1130     Zr1138   2.390       .  S
O1130      C1145   1.277       .  A
O1131     Zr1136   2.394       .  S
O1131     Zr1138   2.385       .  S
O1132     Zr1137   2.386       .  S
O1132     Zr1138   2.382       .  S
O1132      H1167   0.965       .  S
O1133     Zr1136   2.392       .  S
O1133     Zr1153   2.393       .  S
O1133      H1170   0.964       .  S
O1134     Zr1137   2.384       .  S
O1134     Zr1153   2.390       .  S
Zr1135     O1160   2.441       .  S
Zr1135     O1154   2.436       .  S
Zr1135     O1162   2.443       .  S
Zr1135     O1150   2.445       .  S
Zr1135     O1141   2.400       .  S
Zr1135     O1142   2.408       .  S
Zr1135     O1143   2.385       .  S
Zr1135     O1144   2.385       .  S
Zr1136     O1155   2.436       .  S
Zr1136     O1148   2.434       .  S
Zr1136     O1149   2.410       .  S
Zr1136     O1142   2.404       .  S
Zr1136     O1143   2.395       .  S
Zr1137     O1139   2.435       .  S
Zr1137     O1161   2.436       .  S
Zr1137     O1163   2.407       .  S
Zr1137     O1141   2.386       .  S
Zr1137     O1144   2.389       .  S
Zr1138     O1164   2.438       .  S
Zr1138     O1165   2.435       .  S
Zr1138     O1140   2.436       .  S
Zr1138     O1141   2.384       .  S
Zr1138     O1142   2.381       .  S
O1139      H1176   0.990       .  S
O1140      H1171   0.990       .  S
O1140      H1185   0.990       .  S
O1142      H1168   0.966       .  S
O1143     Zr1153   2.375       .  S
O1144     Zr1153   2.376       .  S
O1144      H1169   0.967       .  S
C1145      C1813   1.474       .  S
C1146      C2258   1.460       .  S
C1147      C1477   1.473       .  S
O1148      H1184   0.990       .  S
O1149      C1151   1.280       .  A
O1150      C1151   1.286       .  A
C1151      C1429   1.480       .  S
O1152     Zr1153   2.438       .  S
O1152      H1181   0.990       .  S
Zr1153     O1156   2.438       .  S
Zr1153     O1157   2.440       .  S
Zr1153     O1158   2.415       .  S
O1154      C1159   1.284       .  A
O1155      H1172   0.990       .  S
O1155      H1187   0.990       .  S
O1156      H1173   0.990       .  S
O1157      H1177   0.990       .  S
O1157      H1186   0.989       .  S
O1158      C1159   1.281       .  A
C1159      C2917   1.485       .  S
O1160      H1179   0.991       .  S
O1160      H1183   0.990       .  S
O1161      H1175   0.990       .  S
O1161      H1182   0.990       .  S
O1162      C1166   1.286       .  A
O1163      C1166   1.280       .  A
O1164      H1174   0.990       .  S
O1165      H1178   0.990       .  S
C1166      C2485   1.467       .  S
Zr1189     O1190   2.439       .  S
Zr1189     O1191   2.446   1_455  S
Zr1189     O1192   2.453       .  S
Zr1189     O1195   2.450       .  S
Zr1189     O1197   2.381       .  S
Zr1189     O1198   2.387   1_455  S
Zr1189     O1199   2.408       .  S
Zr1189     O1200   2.410       .  S
O1190      H1246   0.990       .  S
O1190      H1254   0.991       .  S
O1191      C1211   1.285       .  A
O1192      C1213   1.286       .  A
O1193     Zr1203   2.424   1_455  S
O1193      C1212   1.284       .  A
O1194     Zr1202   2.405   1_554  S
O1194      C1213   1.278       .  A
O1195      C1212   1.287       .  A
O1196     Zr1204   2.407       .  S
O1196      C1211   1.280       .  A
O1197     Zr1202   2.396   1_554  S
O1197     Zr1204   2.378   1_455  S
O1198     Zr1203   2.398       .  S
O1198     Zr1204   2.375       .  S
O1198      H1233   0.966       .  S
O1199     Zr1202   2.397   1_554  S
O1199     Zr1219   2.395   1_554  S
O1199      H1236   0.966       .  S
O1200     Zr1203   2.390   1_455  S
O1200     Zr1219   2.393   1_554  S
Zr1201     O1226   2.439       .  S
Zr1201     O1220   2.462   1_655  S
Zr1201     O1228   2.452       .  S
Zr1201     O1216   2.444       .  S
Zr1201     O1207   2.404       .  S
Zr1201     O1208   2.418       .  S
Zr1201     O1209   2.379   1_655  S
Zr1201     O1210   2.391   1_655  S
Zr1202     O1221   2.436       .  S
Zr1202     O1214   2.434       .  S
Zr1202     O1215   2.410       .  S
Zr1202     O1208   2.396   1_455  S
Zr1202     O1209   2.387       .  S
Zr1203     O1205   2.438   1_654  S
Zr1203     O1227   2.439       .  S
Zr1203     O1229   2.423   1_554  S
Zr1203     O1207   2.383   1_554  S
Zr1203     O1210   2.396   1_654  S
Zr1204     O1230   2.435       .  S
Zr1204     O1231   2.435   1_554  S
Zr1204     O1206   2.437       .  S
Zr1204     O1207   2.385   1_554  S
Zr1204     O1208   2.385   1_554  S
O1205      H1242   0.990   1_556  S
O1206      H1237   0.990       .  S
O1206      H1251   0.990       .  S
O1208      H1234   0.965       .  S
O1209     Zr1219   2.382       .  S
O1210     Zr1219   2.386       .  S
O1210      H1235   0.966       .  S
C1211      C1941   1.492       .  S
C1212      C3122   1.503       .  S
C1213      C1410   1.474       .  S
O1214      H1250   0.989   1_456  S
O1215      C1217   1.280   1_455  A
O1216      C1217   1.284       .  A
C1217      C1461   1.468       .  S
O1218     Zr1219   2.440   1_554  S
O1218      H1247   0.990   1_554  S
Zr1219     O1222   2.438       .  S
Zr1219     O1223   2.441       .  S
Zr1219     O1224   2.412       .  S
O1220      C1225   1.288       .  A
O1221      H1238   0.990       .  S
O1221      H1253   0.990       .  S
O1222      H1239   0.990       .  S
O1223      H1243   0.990       .  S
O1223      H1252   0.990       .  S
O1224      C1225   1.281       .  A
C1225      C2117   1.494       .  S
O1226      H1245   0.991       .  S
O1226      H1249   0.990       .  S
O1227      H1241   0.990       .  S
O1227      H1248   0.990       .  S
O1228      C1232   1.287       .  A
O1229      C1232   1.285       .  A
O1230      H1240   0.990       .  S
O1231      H1244   0.990       .  S
C1232      C1541   1.491       .  S
C1255      C2405   1.479       .  S
C1255      N1256   1.360       .  A
C1255      N1260   1.358       .  A
N1256      C1257   1.361       .  A
C1257      C2069   1.494       .  S
C1257      N1258   1.359       .  A
N1258      C1259   1.357       .  A
C1259      C1394   1.482       .  S
C1259      N1260   1.356       .  A
C1261      C2018   1.495       .  S
C1261      N1262   1.358       .  A
C1261      N1266   1.357       .  A
N1262      C1263   1.357       .  A
C1263      C1397   1.481       .  S
C1263      N1264   1.359       .  A
N1264      C1265   1.359       .  A
C1265      C1378   1.482       .  S
C1265      N1266   1.357       .  A
C1267      C1413   1.470       .  S
C1267      N1268   1.359       .  A
C1267      N1272   1.358       .  A
N1268      C1269   1.356       .  A
C1269      C1365   1.485       .  S
C1269      N1270   1.355       .  A
N1270      C1271   1.354       .  A
C1271      C2597   1.473       .  S
C1271      N1272   1.358       .  A
C1273      C1346   1.475       .  S
C1273      N1274   1.354       .  A
C1273      N1278   1.361       .  A
N1274      C1275   1.354       .  A
C1275      C1362   1.482       .  S
C1275      N1276   1.359       .  A
N1276      C1277   1.363       .  A
C1277      C1733   1.501       .  S
C1277      N1278   1.363       .  A
Zr1279     O1280   2.441       .  S
Zr1279     O1281   2.450       .  S
Zr1279     O1282   2.466       .  S
Zr1279     O1285   2.463       .  S
Zr1279     O1287   2.388       .  S
Zr1279     O1288   2.392       .  S
Zr1279     O1289   2.414       .  S
Zr1279     O1290   2.397       .  S
O1280      H1336   0.990       .  S
O1280      H1344   0.991       .  S
O1281      C1301   1.285       .  A
O1282      C1303   1.289       .  A
O1283     Zr1293   2.413       .  S
O1283      C1302   1.280       .  A
O1284     Zr1292   2.417       .  S
O1284      C1303   1.281       .  A
O1285      C1302   1.290       .  A
O1286     Zr1294   2.403       .  S
O1286      C1301   1.277       .  A
O1287     Zr1292   2.399       .  S
O1287     Zr1294   2.382       .  S
O1288     Zr1293   2.397       .  S
O1288     Zr1294   2.376       .  S
O1288      H1323   0.966       .  S
O1289     Zr1292   2.402       .  S
O1289     Zr1309   2.379       .  S
O1289      H1326   0.964       .  S
O1290     Zr1293   2.387       .  S
O1290     Zr1309   2.380       .  S
Zr1291     O1316   2.441       .  S
Zr1291     O1310   2.449       .  S
Zr1291     O1318   2.455       .  S
Zr1291     O1306   2.448       .  S
Zr1291     O1297   2.405       .  S
Zr1291     O1298   2.410       .  S
Zr1291     O1299   2.384       .  S
Zr1291     O1300   2.387       .  S
Zr1292     O1311   2.437       .  S
Zr1292     O1304   2.434       .  S
Zr1292     O1305   2.436       .  S
Zr1292     O1298   2.393       .  S
Zr1292     O1299   2.390       .  S
Zr1293     O1295   2.437       .  S
Zr1293     O1317   2.438       .  S
Zr1293     O1319   2.418       .  S
Zr1293     O1297   2.390       .  S
Zr1293     O1300   2.394       .  S
Zr1294     O1320   2.435       .  S
Zr1294     O1321   2.434       .  S
Zr1294     O1296   2.437       .  S
Zr1294     O1297   2.389       .  S
Zr1294     O1298   2.383       .  S
O1295      H1332   0.990       .  S
O1296      H1327   0.990       .  S
O1296      H1341   0.990       .  S
O1298      H1324   0.965       .  S
O1299     Zr1309   2.386       .  S
O1300     Zr1309   2.388       .  S
O1300      H1325   0.965       .  S
C1301      C1349   1.478       .  S
C1302      C1381   1.477       .  S
C1303      C1493   1.475       .  S
O1304      H1340   0.990       .  S
O1305      C1307   1.285       .  A
O1306      C1307   1.287       .  A
C1307      C2101   1.486       .  S
O1308     Zr1309   2.440       .  S
O1308      H1337   0.990       .  S
Zr1309     O1312   2.437       .  S
Zr1309     O1313   2.440       .  S
Zr1309     O1314   2.391       .  S
O1310      C1315   1.286       .  A
O1311      H1328   0.990       .  S
O1311      H1343   0.990       .  S
O1312      H1329   0.990       .  S
O1313      H1333   0.990       .  S
O1313      H1342   0.990       .  S
O1314      C1315   1.277       .  A
C1315      C1653   1.474       .  S
O1316      H1335   0.990       .  S
O1316      H1339   0.991       .  S
O1317      H1331   0.990       .  S
O1317      H1338   0.990       .  S
O1318      C1322   1.285       .  A
O1319      C1322   1.281       .  A
O1320      H1330   0.990       .  S
O1321      H1334   0.990       .  S
C1322      C2453   1.475       .  S
C1345      C1346   1.403       .  A
C1345      C1350   1.407       .  A
C1345      H1352   1.084       .  S
C1346      C1347   1.413       .  A
C1347      C1348   1.401       .  A
C1347      C1354   1.508       .  S
C1348      C1349   1.404       .  A
C1348      H1353   1.085       .  S
C1349      C1350   1.414       .  A
C1350      C1351   1.506       .  S
C1351      H1355   1.111       .  S
C1351      H1356   1.110       .  S
C1351      H1357   1.111       .  S
C1354      H1358   1.108       .  S
C1354      H1359   1.111       .  S
C1354      H1360   1.111       .  S
C1361      C1362   1.406       .  A
C1361      C1366   1.405       .  A
C1361      H1368   1.084       .  S
C1362      C1363   1.413   1_556  A
C1363      C1364   1.401       .  A
C1363      C1370   1.507       .  S
C1364      C1365   1.406       .  A
C1364      H1369   1.084       .  S
C1365      C1366   1.416   1_554  A
C1366      C1367   1.508       .  S
C1367      H1371   1.111       .  S
C1367      H1372   1.110       .  S
C1367      H1373   1.110       .  S
C1370      H1374   1.110       .  S
C1370      H1375   1.108       .  S
C1370      H1376   1.111       .  S
C1377      C1378   1.404       .  A
C1377      C1382   1.404       .  A
C1377      H1384   1.084       .  S
C1378      C1379   1.416       .  A
C1379      C1380   1.405       .  A
C1379      C1386   1.507       .  S
C1380      C1381   1.403       .  A
C1380      H1385   1.084       .  S
C1381      C1382   1.414       .  A
C1382      C1383   1.507       .  S
C1383      H1387   1.111       .  S
C1383      H1388   1.109       .  S
C1383      H1389   1.110       .  S
C1386      H1390   1.109       .  S
C1386      H1391   1.110       .  S
C1386      H1392   1.111       .  S
C1393      C1394   1.406   1_565  A
C1393      C1398   1.407       .  A
C1393      H1400   1.084       .  S
C1394      C1395   1.415       .  A
C1395      C1396   1.401   1_545  A
C1395      C1402   1.509       .  S
C1396      C1397   1.403       .  A
C1396      H1401   1.084       .  S
C1397      C1398   1.414       .  A
C1398      C1399   1.507       .  S
C1399      H1403   1.111       .  S
C1399      H1404   1.109       .  S
C1399      H1405   1.111       .  S
C1402      H1406   1.109       .  S
C1402      H1407   1.111       .  S
C1402      H1408   1.111       .  S
C1409      C1410   1.402       .  A
C1409      C1414   1.402       .  A
C1409      H1416   1.084       .  S
C1410      C1411   1.415       .  A
C1411      C1412   1.404       .  A
C1411      C1418   1.508       .  S
C1412      C1413   1.401       .  A
C1412      H1417   1.084       .  S
C1413      C1414   1.412       .  A
C1414      C1415   1.508       .  S
C1415      H1419   1.111       .  S
C1415      H1420   1.110       .  S
C1415      H1421   1.110       .  S
C1418      H1422   1.110       .  S
C1418      H1423   1.108       .  S
C1418      H1424   1.111       .  S
C1425      C1426   1.398       .  A
C1425      C1430   1.403       .  A
C1425      H1432   1.084       .  S
C1426      C1427   1.407       .  A
C1427      C1428   1.401       .  A
C1427      C1434   1.507       .  S
C1428      C1429   1.406       .  A
C1428      H1433   1.084       .  S
C1429      C1430   1.419       .  A
C1430      C1431   1.508       .  S
C1431      H1435   1.111       .  S
C1431      H1436   1.110       .  S
C1431      H1437   1.108       .  S
C1434      H1438   1.110       .  S
C1434      H1439   1.110       .  S
C1434      H1440   1.111       .  S
C1441      C1442   1.404   1_565  A
C1441      C1446   1.403       .  A
C1441      H1448   1.084   1_565  S
C1442      C1443   1.415   1_545  A
C1443      C1444   1.400       .  A
C1443      C1450   1.507   1_565  S
C1444      C1445   1.400       .  A
C1444      H1449   1.084       .  S
C1445      C1446   1.412       .  A
C1446      C1447   1.507       .  S
C1447      H1451   1.111       .  S
C1447      H1452   1.110       .  S
C1447      H1453   1.110       .  S
C1450      H1454   1.108       .  S
C1450      H1455   1.110       .  S
C1450      H1456   1.111       .  S
C1457      C1458   1.408       .  A
C1457      C1462   1.400       .  A
C1457      H1464   1.082       .  S
C1458      C1459   1.417       .  A
C1459      C1460   1.404       .  A
C1459      C1466   1.505       .  S
C1460      C1461   1.402       .  A
C1460      H1465   1.085       .  S
C1461      C1462   1.408       .  A
C1462      C1463   1.508   1_655  S
C1463      H1467   1.111       .  S
C1463      H1468   1.110       .  S
C1463      H1469   1.109       .  S
C1466      H1470   1.105       .  S
C1466      H1471   1.110       .  S
C1466      H1472   1.111       .  S
C1473      C1474   1.411       .  A
C1473      C1478   1.404       .  A
C1473      H1480   1.084       .  S
C1474      C1475   1.419       .  A
C1475      C1476   1.404       .  A
C1475      C1482   1.506       .  S
C1476      C1477   1.401       .  A
C1476      H1481   1.085       .  S
C1477      C1478   1.407       .  A
C1478      C1479   1.507       .  S
C1479      H1483   1.111       .  S
C1479      H1484   1.110       .  S
C1479      H1485   1.109       .  S
C1482      H1486   1.106       .  S
C1482      H1487   1.110       .  S
C1482      H1488   1.111       .  S
C1489      C1490   1.407       .  A
C1489      C1494   1.406       .  A
C1489      H1496   1.084       .  S
C1490      C1491   1.424       .  A
C1491      C1492   1.404       .  A
C1491      C1498   1.508       .  S
C1492      C1493   1.398       .  A
C1492      H1497   1.085       .  S
C1493      C1494   1.411       .  A
C1494      C1495   1.507       .  S
C1495      H1499   1.111       .  S
C1495      H1500   1.110       .  S
C1495      H1501   1.110       .  S
C1498      H1502   1.108       .  S
C1498      H1503   1.110       .  S
C1498      H1504   1.111       .  S
C1505      C1506   1.409       .  A
C1505      C1510   1.403       .  A
C1505      H1512   1.083       .  S
C1506      C1507   1.423   1_655  A
C1507      C1508   1.403       .  A
C1507      C1514   1.509       .  S
C1508      C1509   1.403       .  A
C1508      H1513   1.082       .  S
C1509      C1510   1.416   1_455  A
C1510      C1511   1.509       .  S
C1511      H1515   1.111       .  S
C1511      H1516   1.110       .  S
C1511      H1517   1.109       .  S
C1514      H1518   1.108       .  S
C1514      H1519   1.110       .  S
C1514      H1520   1.111       .  S
C1521      C1522   1.405       .  A
C1521      C1526   1.402       .  A
C1521      H1528   1.083       .  S
C1522      C1523   1.427       .  A
C1523      C1524   1.410       .  A
C1523      C1530   1.509       .  S
C1524      C1525   1.402       .  A
C1524      H1529   1.084       .  S
C1525      C1526   1.415       .  A
C1526      C1527   1.507       .  S
C1527      H1531   1.111       .  S
C1527      H1532   1.110       .  S
C1527      H1533   1.107       .  S
C1530      H1534   1.111       .  S
C1530      H1535   1.109       .  S
C1530      H1536   1.111       .  S
C1537      C1538   1.412       .  A
C1537      C1542   1.409       .  A
C1537      H1544   1.083       .  S
C1538      C1539   1.425       .  A
C1539      C1540   1.403       .  A
C1539      C1546   1.510       .  S
C1540      C1541   1.403       .  A
C1540      H1545   1.084       .  S
C1541      C1542   1.414       .  A
C1542      C1543   1.506       .  S
C1543      H1547   1.111       .  S
C1543      H1548   1.110       .  S
C1543      H1549   1.106       .  S
C1546      H1550   1.110       .  S
C1546      H1551   1.110       .  S
C1546      H1552   1.111   1_556  S
C1553      C1554   1.407       .  A
C1553      C1558   1.407       .  A
C1553      H1560   1.084       .  S
C1554      C1555   1.419       .  A
C1555      C1556   1.407       .  A
C1555      C1562   1.506       .  S
C1556      C1557   1.401       .  A
C1556      H1561   1.084       .  S
C1557      C1558   1.411       .  A
C1558      C1559   1.506       .  S
C1559      H1563   1.111       .  S
C1559      H1564   1.110       .  S
C1559      H1565   1.109       .  S
C1562      H1566   1.111       .  S
C1562      H1567   1.108       .  S
C1562      H1568   1.111       .  S
C1569      C1570   1.412   1_556  A
C1569      C1574   1.404       .  A
C1569      H1576   1.083       .  S
C1570      C1571   1.424       .  A
C1571      C1572   1.410   1_554  A
C1571      C1578   1.507       .  S
C1572      C1573   1.401       .  A
C1572      H1577   1.084       .  S
C1573      C1574   1.408       .  A
C1574      C1575   1.507       .  S
C1575      H1579   1.111       .  S
C1575      H1580   1.107       .  S
C1575      H1581   1.110       .  S
C1578      H1582   1.110       .  S
C1578      H1583   1.110       .  S
C1578      H1584   1.111       .  S
C1585      C1586   1.403       .  A
C1585      C1590   1.402       .  A
C1585      H1592   1.084       .  S
C1586      C1587   1.415       .  A
C1587      C1588   1.410       .  A
C1587      C1594   1.506       .  S
C1588      C1589   1.406       .  A
C1588      H1593   1.084       .  S
C1589      C1590   1.415       .  A
C1590      C1591   1.509       .  S
C1591      H1595   1.111       .  S
C1591      H1596   1.108       .  S
C1591      H1597   1.110       .  S
C1594      H1598   1.110       .  S
C1594      H1599   1.110       .  S
C1594      H1600   1.111       .  S
C1601      C1602   1.401   1_655  A
C1601      C1606   1.406       .  A
C1601      H1608   1.084       .  S
C1602      C1603   1.415       .  A
C1603      C1604   1.405       .  A
C1603      C1610   1.508       .  S
C1604      C1605   1.404   1_455  A
C1604      H1609   1.084       .  S
C1605      C1606   1.418       .  A
C1606      C1607   1.508       .  S
C1607      H1611   1.111       .  S
C1607      H1612   1.110       .  S
C1607      H1613   1.109       .  S
C1610      H1614   1.111       .  S
C1610      H1615   1.109       .  S
C1610      H1616   1.111       .  S
C1617      C1618   1.403       .  A
C1617      C1622   1.407       .  A
C1617      H1624   1.084       .  S
C1618      C1619   1.418       .  A
C1619      C1620   1.403       .  A
C1619      C1626   1.509       .  S
C1620      C1621   1.405       .  A
C1620      H1625   1.084       .  S
C1621      C1622   1.419       .  A
C1622      C1623   1.505       .  S
C1623      H1627   1.111       .  S
C1623      H1628   1.110       .  S
C1623      H1629   1.108       .  S
C1626      H1630   1.109       .  S
C1626      H1631   1.110       .  S
C1626      H1632   1.111       .  S
C1633      C1634   1.405       .  A
C1633      C1638   1.402       .  A
C1633      H1640   1.084       .  S
C1634      C1635   1.415       .  A
C1635      C1636   1.404       .  A
C1635      C1642   1.506       .  S
C1636      C1637   1.402       .  A
C1636      H1641   1.084       .  S
C1637      C1638   1.411       .  A
C1638      C1639   1.507       .  S
C1639      H1643   1.111       .  S
C1639      H1644   1.109       .  S
C1639      H1645   1.110       .  S
C1642      H1646   1.109       .  S
C1642      H1647   1.110       .  S
C1642      H1648   1.111       .  S
C1649      C1650   1.416       .  A
C1649      C1654   1.403       .  A
C1649      H1656   1.083       .  S
C1650      C1651   1.420       .  A
C1651      C1652   1.403       .  A
C1651      C1658   1.501       .  S
C1652      C1653   1.401       .  A
C1652      H1657   1.085       .  S
C1653      C1654   1.406       .  A
C1654      C1655   1.509       .  S
C1655      H1659   1.111       .  S
C1655      H1660   1.110       .  S
C1655      H1661   1.111       .  S
C1658      H1662   1.108       .  S
C1658      H1663   1.109       .  S
C1658      H1664   1.111       .  S
C1665      C1666   1.404       .  A
C1665      C1670   1.405       .  A
C1665      H1672   1.084       .  S
C1666      C1667   1.413       .  A
C1667      C1668   1.399       .  A
C1667      C1674   1.509       .  S
C1668      C1669   1.401       .  A
C1668      H1673   1.084       .  S
C1669      C1670   1.413       .  A
C1670      C1671   1.507       .  S
C1671      H1675   1.111       .  S
C1671      H1676   1.109       .  S
C1671      H1677   1.111       .  S
C1674      H1678   1.109       .  S
C1674      H1679   1.110       .  S
C1674      H1680   1.111       .  S
C1681      C1682   1.408       .  A
C1681      C1686   1.398       .  A
C1681      H1688   1.084       .  S
C1682      C1683   1.421       .  A
C1683      C1684   1.412       .  A
C1683      C1690   1.506       .  S
C1684      C1685   1.403       .  A
C1684      H1689   1.084       .  S
C1685      C1686   1.408       .  A
C1686      C1687   1.509       .  S
C1687      H1691   1.111       .  S
C1687      H1692   1.110       .  S
C1687      H1693   1.110       .  S
C1690      H1694   1.110       .  S
C1690      H1695   1.110       .  S
C1690      H1696   1.111       .  S
C1697      C1698   1.408       .  A
C1697      C1702   1.404       .  A
C1697      H1704   1.084       .  S
C1698      C1699   1.415       .  A
C1699      C1700   1.404       .  A
C1699      C1706   1.502       .  S
C1700      C1701   1.404       .  A
C1700      H1705   1.084       .  S
C1701      C1702   1.413       .  A
C1702      C1703   1.508       .  S
C1703      H1707   1.111       .  S
C1703      H1708   1.110       .  S
C1703      H1709   1.109       .  S
C1706      H1710   1.103       .  S
C1706      H1711   1.111       .  S
C1706      H1712   1.111       .  S
C1713      C1714   1.401       .  A
C1713      C1718   1.404       .  A
C1713      H1720   1.084       .  S
C1714      C1715   1.413       .  A
C1715      C1716   1.399       .  A
C1715      C1722   1.509       .  S
C1716      C1717   1.402       .  A
C1716      H1721   1.084   1_565  S
C1717      C1718   1.417       .  A
C1718      C1719   1.507       .  S
C1719      H1723   1.111       .  S
C1719      H1724   1.108   1_655  S
C1719      H1725   1.110       .  S
C1722      H1726   1.109   1_565  S
C1722      H1727   1.111       .  S
C1722      H1728   1.111   1_565  S
C1729      C1730   1.404       .  A
C1729      C1734   1.410       .  A
C1729      H1736   1.084       .  S
C1730      C1731   1.412   1_556  A
C1731      C1732   1.405   1_554  A
C1731      C1738   1.508       .  S
C1732      C1733   1.410       .  A
C1732      H1737   1.082   1_556  S
C1733      C1734   1.423       .  A
C1734      C1735   1.508       .  S
C1735      H1739   1.111       .  S
C1735      H1740   1.110       .  S
C1735      H1741   1.110       .  S
C1738      H1742   1.111       .  S
C1738      H1743   1.108       .  S
C1738      H1744   1.111       .  S
C1745      C1746   1.402       .  A
C1745      C1750   1.408       .  A
C1745      H1752   1.084       .  S
C1746      C1747   1.413   1_554  A
C1747      C1748   1.405   1_556  A
C1747      C1754   1.508       .  S
C1748      C1749   1.410       .  A
C1748      H1753   1.084   1_554  S
C1749      C1750   1.419       .  A
C1750      C1751   1.496       .  S
C1751      H1755   1.111       .  S
C1751      H1756   1.108       .  S
C1751      H1757   1.105       .  S
C1754      H1758   1.109       .  S
C1754      H1759   1.111       .  S
C1754      H1760   1.111       .  S
C1761      C1762   1.404       .  A
C1761      C1766   1.407       .  A
C1761      H1768   1.084       .  S
C1762      C1763   1.411       .  A
C1763      C1764   1.407       .  A
C1763      C1770   1.508       .  S
C1764      C1765   1.412       .  A
C1764      H1769   1.082       .  S
C1765      C1766   1.421       .  A
C1766      C1767   1.508       .  S
C1767      H1771   1.111       .  S
C1767      H1772   1.110       .  S
C1767      H1773   1.109       .  S
C1770      H1774   1.110       .  S
C1770      H1775   1.110       .  S
C1770      H1776   1.111       .  S
C1777      C1778   1.406       .  A
C1777      C1782   1.406       .  A
C1777      H1784   1.084       .  S
C1778      C1779   1.419       .  A
C1779      C1780   1.402       .  A
C1779      C1786   1.507       .  S
C1780      C1781   1.399       .  A
C1780      H1785   1.084       .  S
C1781      C1782   1.412       .  A
C1782      C1783   1.507       .  S
C1783      H1787   1.111       .  S
C1783      H1788   1.110       .  S
C1783      H1789   1.110       .  S
C1786      H1790   1.108       .  S
C1786      H1791   1.108       .  S
C1786      H1792   1.111       .  S
C1793      C1794   1.405       .  A
C1793      C1798   1.407       .  A
C1793      H1800   1.084       .  S
C1794      C1795   1.415       .  A
C1795      C1796   1.404       .  A
C1795      C1802   1.505       .  S
C1796      C1797   1.406       .  A
C1796      H1801   1.084       .  S
C1797      C1798   1.419       .  A
C1798      C1799   1.508       .  S
C1799      H1803   1.111       .  S
C1799      H1804   1.111       .  S
C1799      H1805   1.109       .  S
C1802      H1806   1.111       .  S
C1802      H1807   1.106       .  S
C1802      H1808   1.111       .  S
C1809      C1810   1.410       .  A
C1809      C1814   1.402       .  A
C1809      H1816   1.084       .  S
C1810      C1811   1.420       .  A
C1811      C1812   1.398       .  A
C1811      C1818   1.510       .  S
C1812      C1813   1.402       .  A
C1812      H1817   1.085       .  S
C1813      C1814   1.410       .  A
C1814      C1815   1.507       .  S
C1815      H1819   1.111       .  S
C1815      H1820   1.110       .  S
C1815      H1821   1.108       .  S
C1818      H1822   1.110       .  S
C1818      H1823   1.110       .  S
C1818      H1824   1.111       .  S
C1825      C1826   1.398       .  A
C1825      C1830   1.402       .  A
C1825      H1832   1.085       .  S
C1826      C1827   1.410       .  A
C1827      C1828   1.396       .  A
C1827      C1834   1.507       .  S
C1828      C1829   1.408       .  A
C1828      H1833   1.084       .  S
C1829      C1830   1.425       .  A
C1830      C1831   1.509       .  S
C1831      H1835   1.111       .  S
C1831      H1836   1.110       .  S
C1831      H1837   1.109       .  S
C1834      H1838   1.109       .  S
C1834      H1839   1.110       .  S
C1834      H1840   1.111       .  S
C1841      C1842   1.403       .  A
C1841      C1846   1.402       .  A
C1841      H1848   1.084       .  S
C1842      C1843   1.411   1_554  A
C1843      C1844   1.401       .  A
C1843      C1850   1.507       .  S
C1844      C1845   1.404       .  A
C1844      H1849   1.084       .  S
C1845      C1846   1.413   1_556  A
C1846      C1847   1.508       .  S
C1847      H1851   1.111       .  S
C1847      H1852   1.111       .  S
C1847      H1853   1.109       .  S
C1850      H1854   1.111       .  S
C1850      H1855   1.109       .  S
C1850      H1856   1.111       .  S
C1857      C1858   1.404       .  A
C1857      C1862   1.403       .  A
C1857      H1864   1.084       .  S
C1858      C1859   1.412       .  A
C1859      C1860   1.407       .  A
C1859      C1866   1.505       .  S
C1860      C1861   1.405       .  A
C1860      H1865   1.084       .  S
C1861      C1862   1.411       .  A
C1862      C1863   1.507       .  S
C1863      H1867   1.111       .  S
C1863      H1868   1.111       .  S
C1863      H1869   1.110       .  S
C1866      H1870   1.111   1_655  S
C1866      H1871   1.110       .  S
C1866      H1872   1.111       .  S
C1873      C1874   1.408       .  A
C1873      C1878   1.399       .  A
C1873      H1880   1.084       .  S
C1874      C1875   1.420       .  A
C1875      C1876   1.408       .  A
C1875      C1882   1.508       .  S
C1876      C1877   1.404       .  A
C1876      H1881   1.085       .  S
C1877      C1878   1.408       .  A
C1878      C1879   1.508       .  S
C1879      H1883   1.111       .  S
C1879      H1884   1.108       .  S
C1879      H1885   1.110       .  S
C1882      H1886   1.111       .  S
C1882      H1887   1.102       .  S
C1882      H1888   1.111       .  S
C1889      C1890   1.411       .  A
C1889      C1894   1.402   1_455  A
C1889      H1896   1.083       .  S
C1890      C1891   1.420   1_455  A
C1891      C1892   1.402       .  A
C1891      C1898   1.508       .  S
C1892      C1893   1.403       .  A
C1892      H1897   1.084       .  S
C1893      C1894   1.410       .  A
C1894      C1895   1.508   1_655  S
C1895      H1899   1.111       .  S
C1895      H1900   1.109       .  S
C1895      H1901   1.111   1_455  S
C1898      H1902   1.108       .  S
C1898      H1903   1.110       .  S
C1898      H1904   1.111       .  S
C1905      C1906   1.409       .  A
C1905      C1910   1.409       .  A
C1905      H1912   1.084       .  S
C1906      C1907   1.421       .  A
C1907      C1908   1.403       .  A
C1907      C1914   1.504       .  S
C1908      C1909   1.402       .  A
C1908      H1913   1.085       .  S
C1909      C1910   1.415       .  A
C1910      C1911   1.506       .  S
C1911      H1915   1.111       .  S
C1911      H1916   1.109       .  S
C1911      H1917   1.110       .  S
C1914      H1918   1.109       .  S
C1914      H1919   1.109       .  S
C1914      H1920   1.111       .  S
C1921      C1922   1.406       .  A
C1921      C1926   1.405   1_565  A
C1921      H1928   1.084       .  S
C1922      C1923   1.425   1_565  A
C1923      C1924   1.407       .  A
C1923      C1930   1.509       .  S
C1924      C1925   1.399       .  A
C1924      H1929   1.084       .  S
C1925      C1926   1.416       .  A
C1926      C1927   1.509       .  S
C1927      H1931   1.111   1_545  S
C1927      H1932   1.111       .  S
C1927      H1933   1.109       .  S
C1930      H1934   1.110       .  S
C1930      H1935   1.110       .  S
C1930      H1936   1.111       .  S
C1937      C1938   1.410       .  A
C1937      C1942   1.405       .  A
C1937      H1944   1.084       .  S
C1938      C1939   1.416       .  A
C1939      C1940   1.405       .  A
C1939      C1946   1.508       .  S
C1940      C1941   1.409       .  A
C1940      H1945   1.084       .  S
C1941      C1942   1.416       .  A
C1942      C1943   1.509       .  S
C1943      H1947   1.111   1_655  S
C1943      H1948   1.110   1_655  S
C1943      H1949   1.110       .  S
C1946      H1950   1.110       .  S
C1946      H1951   1.110       .  S
C1946      H1952   1.111       .  S
C1953      C1954   1.410       .  A
C1953      C1958   1.409       .  A
C1953      H1960   1.084       .  S
C1954      C1955   1.419       .  A
C1955      C1956   1.411       .  A
C1955      C1962   1.507       .  S
C1956      C1957   1.409       .  A
C1956      H1961   1.083       .  S
C1957      C1958   1.418       .  A
C1958      C1959   1.507       .  S
C1959      H1963   1.111       .  S
C1959      H1964   1.110       .  S
C1959      H1965   1.109       .  S
C1962      H1966   1.111       .  S
C1962      H1967   1.108       .  S
C1962      H1968   1.111       .  S
C1969      C1970   1.412       .  A
C1969      C1974   1.406       .  A
C1969      H1976   1.083       .  S
C1970      C1971   1.424       .  A
C1971      C1972   1.407       .  A
C1971      C1978   1.508       .  S
C1972      C1973   1.402       .  A
C1972      H1977   1.085       .  S
C1973      C1974   1.408       .  A
C1974      C1975   1.506       .  S
C1975      H1979   1.111       .  S
C1975      H1980   1.107       .  S
C1975      H1981   1.111       .  S
C1978      H1982   1.109       .  S
C1978      H1983   1.111       .  S
C1978      H1984   1.111       .  S
C1985      C1986   1.404       .  A
C1985      C1990   1.404       .  A
C1985      H1992   1.084       .  S
C1986      C1987   1.411       .  A
C1987      C1988   1.401       .  A
C1987      C1994   1.509       .  S
C1988      C1989   1.411       .  A
C1988      H1993   1.083       .  S
C1989      C1990   1.420       .  A
C1990      C1991   1.508       .  S
C1991      H1995   1.111       .  S
C1991      H1996   1.110       .  S
C1991      H1997   1.110       .  S
C1994      H1998   1.111   1_545  S
C1994      H1999   1.110       .  S
C1994      H2000   1.111       .  S
C2001      C2002   1.403       .  A
C2001      C2006   1.401       .  A
C2001      H2008   1.084       .  S
C2002      C2003   1.414       .  A
C2003      C2004   1.404       .  A
C2003      C2010   1.507       .  S
C2004      C2005   1.401       .  A
C2004      H2009   1.084       .  S
C2005      C2006   1.412       .  A
C2006      C2007   1.507       .  S
C2007      H2011   1.111       .  S
C2007      H2012   1.111       .  S
C2007      H2013   1.109       .  S
C2010      H2014   1.110       .  S
C2010      H2015   1.109       .  S
C2010      H2016   1.111       .  S
C2017      C2018   1.411       .  A
C2017      C2022   1.404       .  A
C2017      H2024   1.083       .  S
C2018      C2019   1.423       .  A
C2019      C2020   1.401       .  A
C2019      C2026   1.510       .  S
C2020      C2021   1.402       .  A
C2020      H2025   1.085       .  S
C2021      C2022   1.412       .  A
C2022      C2023   1.508       .  S
C2023      H2027   1.111       .  S
C2023      H2028   1.110       .  S
C2023      H2029   1.111   1_565  S
C2026      H2030   1.110       .  S
C2026      H2031   1.110       .  S
C2026      H2032   1.111       .  S
C2033      C2034   1.400       .  A
C2033      C2038   1.403       .  A
C2033      H2040   1.084       .  S
C2034      C2035   1.411       .  A
C2035      C2036   1.403       .  A
C2035      C2042   1.507       .  S
C2036      C2037   1.401       .  A
C2036      H2041   1.084       .  S
C2037      C2038   1.412       .  A
C2038      C2039   1.506       .  S
C2039      H2043   1.111       .  S
C2039      H2044   1.110       .  S
C2039      H2045   1.109       .  S
C2042      H2046   1.110       .  S
C2042      H2047   1.110       .  S
C2042      H2048   1.111       .  S
C2049      C2050   1.404       .  A
C2049      C2054   1.406       .  A
C2049      H2056   1.084       .  S
C2050      C2051   1.415       .  A
C2051      C2052   1.402       .  A
C2051      C2058   1.508       .  S
C2052      C2053   1.402       .  A
C2052      H2057   1.084       .  S
C2053      C2054   1.416       .  A
C2054      C2055   1.507       .  S
C2055      H2059   1.111       .  S
C2055      H2060   1.109       .  S
C2055      H2061   1.111       .  S
C2058      H2062   1.110       .  S
C2058      H2063   1.109       .  S
C2058      H2064   1.111       .  S
C2065      C2066   1.404       .  A
C2065      C2070   1.405       .  A
C2065      H2072   1.084       .  S
C2066      C2067   1.413       .  A
C2067      C2068   1.407       .  A
C2067      C2074   1.507       .  S
C2068      C2069   1.410       .  A
C2068      H2073   1.084       .  S
C2069      C2070   1.419       .  A
C2070      C2071   1.508       .  S
C2071      H2075   1.111       .  S
C2071      H2076   1.109       .  S
C2071      H2077   1.111       .  S
C2074      H2078   1.107       .  S
C2074      H2079   1.111       .  S
C2074      H2080   1.111       .  S
C2081      C2082   1.402       .  A
C2081      C2086   1.406       .  A
C2081      H2088   1.084       .  S
C2082      C2083   1.418       .  A
C2083      C2084   1.408       .  A
C2083      C2090   1.506       .  S
C2084      C2085   1.404       .  A
C2084      H2089   1.084       .  S
C2085      C2086   1.419       .  A
C2086      C2087   1.508       .  S
C2087      H2091   1.111       .  S
C2087      H2092   1.108       .  S
C2087      H2093   1.110       .  S
C2090      H2094   1.109       .  S
C2090      H2095   1.108       .  S
C2090      H2096   1.111       .  S
C2097      C2098   1.402       .  A
C2097      C2102   1.407       .  A
C2097      H2104   1.084       .  S
C2098      C2099   1.411       .  A
C2099      C2100   1.406       .  A
C2099      C2106   1.507       .  S
C2100      C2101   1.406       .  A
C2100      H2105   1.084       .  S
C2101      C2102   1.416       .  A
C2102      C2103   1.507       .  S
C2103      H2107   1.111       .  S
C2103      H2108   1.111       .  S
C2103      H2109   1.108       .  S
C2106      H2110   1.111       .  S
C2106      H2111   1.110       .  S
C2106      H2112   1.111       .  S
C2113      C2114   1.411       .  A
C2113      C2118   1.412       .  A
C2113      H2120   1.083       .  S
C2114      C2115   1.424       .  A
C2115      C2116   1.405       .  A
C2115      C2122   1.509       .  S
C2116      C2117   1.404       .  A
C2116      H2121   1.084       .  S
C2117      C2118   1.416       .  A
C2118      C2119   1.507       .  S
C2119      H2123   1.111       .  S
C2119      H2124   1.111       .  S
C2119      H2125   1.109       .  S
C2122      H2126   1.110       .  S
C2122      H2127   1.106       .  S
C2122      H2128   1.111       .  S
C2129      C2130   1.403       .  A
C2129      C2134   1.408       .  A
C2129      H2136   1.084       .  S
C2130      C2131   1.411       .  A
C2131      C2132   1.403       .  A
C2131      C2138   1.508       .  S
C2132      C2133   1.411       .  A
C2132      H2137   1.084       .  S
C2133      C2134   1.421       .  A
C2134      C2135   1.505       .  S
C2135      H2139   1.111       .  S
C2135      H2140   1.110       .  S
C2135      H2141   1.107       .  S
C2138      H2142   1.110       .  S
C2138      H2143   1.105       .  S
C2138      H2144   1.111       .  S
C2145      C2146   1.405       .  A
C2145      C2150   1.404       .  A
C2145      H2152   1.084       .  S
C2146      C2147   1.422       .  A
C2147      C2148   1.408       .  A
C2147      C2154   1.509       .  S
C2148      C2149   1.402       .  A
C2148      H2153   1.084       .  S
C2149      C2150   1.414       .  A
C2150      C2151   1.507       .  S
C2151      H2155   1.111       .  S
C2151      H2156   1.110       .  S
C2151      H2157   1.107       .  S
C2154      H2158   1.109       .  S
C2154      H2159   1.110       .  S
C2154      H2160   1.111       .  S
C2161      C2162   1.406       .  A
C2161      C2166   1.403       .  A
C2161      H2168   1.084       .  S
C2162      C2163   1.422       .  A
C2163      C2164   1.403       .  A
C2163      C2170   1.509       .  S
C2164      C2165   1.398       .  A
C2164      H2169   1.085       .  S
C2165      C2166   1.408       .  A
C2166      C2167   1.506       .  S
C2167      H2171   1.111       .  S
C2167      H2172   1.110       .  S
C2167      H2173   1.110       .  S
C2170      H2174   1.110       .  S
C2170      H2175   1.110       .  S
C2170      H2176   1.111       .  S
C2177      C2178   1.411       .  A
C2177      C2182   1.403       .  A
C2177      H2184   1.083       .  S
C2178      C2179   1.423       .  A
C2179      C2180   1.403       .  A
C2179      C2186   1.509       .  S
C2180      C2181   1.398       .  A
C2180      H2185   1.085       .  S
C2181      C2182   1.408       .  A
C2182      C2183   1.506       .  S
C2183      H2187   1.111       .  S
C2183      H2188   1.110       .  S
C2183      H2189   1.108       .  S
C2186      H2190   1.109   1_554  S
C2186      H2191   1.110       .  S
C2186      H2192   1.111       .  S
C2193      C2194   1.408   1_556  A
C2193      C2198   1.406       .  A
C2193      H2200   1.084       .  S
C2194      C2195   1.420       .  A
C2195      C2196   1.405   1_554  A
C2195      C2202   1.509       .  S
C2196      C2197   1.406       .  A
C2196      H2201   1.084   1_556  S
C2197      C2198   1.417       .  A
C2198      C2199   1.508       .  S
C2199      H2203   1.111       .  S
C2199      H2204   1.110       .  S
C2199      H2205   1.110       .  S
C2202      H2206   1.110       .  S
C2202      H2207   1.110       .  S
C2202      H2208   1.111       .  S
C2209      C2210   1.408       .  A
C2209      C2214   1.410       .  A
C2209      H2216   1.084       .  S
C2210      C2211   1.421       .  A
C2211      C2212   1.398       .  A
C2211      C2218   1.510       .  S
C2212      C2213   1.401       .  A
C2212      H2217   1.084       .  S
C2213      C2214   1.417       .  A
C2214      C2215   1.508       .  S
C2215      H2219   1.111       .  S
C2215      H2220   1.111       .  S
C2215      H2221   1.110       .  S
C2218      H2222   1.110       .  S
C2218      H2223   1.109       .  S
C2218      H2224   1.111       .  S
C2225      C2226   1.410       .  A
C2225      C2230   1.407       .  A
C2225      H2232   1.084       .  S
C2226      C2227   1.416       .  A
C2227      C2228   1.407       .  A
C2227      C2234   1.507       .  S
C2228      C2229   1.409       .  A
C2228      H2233   1.084       .  S
C2229      C2230   1.413       .  A
C2230      C2231   1.507       .  S
C2231      H2235   1.111       .  S
C2231      H2236   1.109       .  S
C2231      H2237   1.110       .  S
C2234      H2238   1.109       .  S
C2234      H2239   1.110       .  S
C2234      H2240   1.111       .  S
C2241      C2242   1.400       .  A
C2241      C2246   1.408       .  A
C2241      H2248   1.084       .  S
C2242      C2243   1.417       .  A
C2243      C2244   1.406       .  A
C2243      C2250   1.509       .  S
C2244      C2245   1.408       .  A
C2244      H2249   1.082       .  S
C2245      C2246   1.429       .  A
C2246      C2247   1.510       .  S
C2247      H2251   1.111       .  S
C2247      H2252   1.110       .  S
C2247      H2253   1.110       .  S
C2250      H2254   1.109       .  S
C2250      H2255   1.110       .  S
C2250      H2256   1.111       .  S
C2257      C2258   1.397       .  A
C2257      C2262   1.402       .  A
C2257      H2264   1.084       .  S
C2258      C2259   1.408       .  A
C2259      C2260   1.399       .  A
C2259      C2266   1.508       .  S
C2260      C2261   1.404       .  A
C2260      H2265   1.084       .  S
C2261      C2262   1.419       .  A
C2262      C2263   1.508       .  S
C2263      H2267   1.111       .  S
C2263      H2268   1.109       .  S
C2263      H2269   1.110       .  S
C2266      H2270   1.110       .  S
C2266      H2271   1.110       .  S
C2266      H2272   1.111       .  S
C2273      C2274   1.397       .  A
C2273      C2278   1.400       .  A
C2273      H2280   1.084       .  S
C2274      C2275   1.407       .  A
C2275      C2276   1.400       .  A
C2275      C2282   1.506       .  S
C2276      C2277   1.406       .  A
C2276      H2281   1.084       .  S
C2277      C2278   1.418       .  A
C2278      C2279   1.509       .  S
C2279      H2283   1.111       .  S
C2279      H2284   1.109       .  S
C2279      H2285   1.110       .  S
C2282      H2286   1.110       .  S
C2282      H2287   1.111       .  S
C2282      H2288   1.111       .  S
C2289      C2290   1.408       .  A
C2289      C2294   1.402       .  A
C2289      H2296   1.084       .  S
C2290      C2291   1.420       .  A
C2291      C2292   1.404       .  A
C2291      C2298   1.508       .  S
C2292      C2293   1.401       .  A
C2292      H2297   1.084       .  S
C2293      C2294   1.411       .  A
C2294      C2295   1.508       .  S
C2295      H2299   1.111       .  S
C2295      H2300   1.109       .  S
C2295      H2301   1.111       .  S
C2298      H2302   1.109       .  S
C2298      H2303   1.110       .  S
C2298      H2304   1.111       .  S
C2305      C2306   1.411       .  A
C2305      C2310   1.410       .  A
C2305      H2312   1.082       .  S
C2306      C2307   1.421       .  A
C2307      C2308   1.408       .  A
C2307      C2314   1.509       .  S
C2308      C2309   1.408       .  A
C2308      H2313   1.084       .  S
C2309      C2310   1.415       .  A
C2310      C2311   1.505       .  S
C2311      H2315   1.111       .  S
C2311      H2316   1.110       .  S
C2311      H2317   1.109       .  S
C2314      H2318   1.109       .  S
C2314      H2319   1.110       .  S
C2314      H2320   1.111       .  S
C2321      C2322   1.400       .  A
C2321      C2326   1.405       .  A
C2321      H2328   1.084       .  S
C2322      C2323   1.415       .  A
C2323      C2324   1.406       .  A
C2323      C2330   1.508       .  S
C2324      C2325   1.405       .  A
C2324      H2329   1.084       .  S
C2325      C2326   1.421       .  A
C2326      C2327   1.509       .  S
C2327      H2331   1.111       .  S
C2327      H2332   1.110       .  S
C2327      H2333   1.109       .  S
C2330      H2334   1.110       .  S
C2330      H2335   1.109       .  S
C2330      H2336   1.111       .  S
C2337      C2338   1.407       .  A
C2337      C2342   1.399       .  A
C2337      H2344   1.082       .  S
C2338      C2339   1.427       .  A
C2339      C2340   1.404       .  A
C2339      C2346   1.509       .  S
C2340      C2341   1.396       .  A
C2340      H2345   1.085       .  S
C2341      C2342   1.408       .  A
C2342      C2343   1.508       .  S
C2343      H2347   1.111       .  S
C2343      H2348   1.110       .  S
C2343      H2349   1.109       .  S
C2346      H2350   1.109       .  S
C2346      H2351   1.110       .  S
C2346      H2352   1.111       .  S
C2353      C2354   1.407       .  A
C2353      C2358   1.401       .  A
C2353      H2360   1.083       .  S
C2354      C2355   1.416       .  A
C2355      C2356   1.401       .  A
C2355      C2362   1.510       .  S
C2356      C2357   1.409       .  A
C2356      H2361   1.083       .  S
C2357      C2358   1.414       .  A
C2358      C2359   1.505       .  S
C2359      H2363   1.111       .  S
C2359      H2364   1.105       .  S
C2359      H2365   1.110       .  S
C2362      H2366   1.109       .  S
C2362      H2367   1.110       .  S
C2362      H2368   1.111       .  S
C2369      C2370   1.403       .  A
C2369      C2374   1.407       .  A
C2369      H2376   1.084       .  S
C2370      C2371   1.412       .  A
C2371      C2372   1.403       .  A
C2371      C2378   1.508       .  S
C2372      C2373   1.411       .  A
C2372      H2377   1.082       .  S
C2373      C2374   1.424       .  A
C2374      C2375   1.507       .  S
C2375      H2379   1.111       .  S
C2375      H2380   1.110       .  S
C2375      H2381   1.110       .  S
C2378      H2382   1.110       .  S
C2378      H2383   1.108       .  S
C2378      H2384   1.111       .  S
C2385      C2386   1.402       .  A
C2385      C2390   1.407       .  A
C2385      H2392   1.084       .  S
C2386      C2387   1.407       .  A
C2387      C2388   1.399       .  A
C2387      C2394   1.507       .  S
C2388      C2389   1.406       .  A
C2388      H2393   1.084       .  S
C2389      C2390   1.418       .  A
C2390      C2391   1.507       .  S
C2391      H2395   1.111       .  S
C2391      H2396   1.110       .  S
C2391      H2397   1.110       .  S
C2394      H2398   1.110       .  S
C2394      H2399   1.109       .  S
C2394      H2400   1.111       .  S
C2401      C2402   1.412       .  A
C2401      C2406   1.406       .  A
C2401      H2408   1.084       .  S
C2402      C2403   1.419       .  A
C2403      C2404   1.404       .  A
C2403      C2410   1.504       .  S
C2404      C2405   1.400       .  A
C2404      H2409   1.085       .  S
C2405      C2406   1.410       .  A
C2406      C2407   1.507       .  S
C2407      H2411   1.111       .  S
C2407      H2412   1.110       .  S
C2407      H2413   1.110       .  S
C2410      H2414   1.111       .  S
C2410      H2415   1.104       .  S
C2410      H2416   1.111       .  S
C2417      C2418   1.407       .  A
C2417      C2422   1.401       .  A
C2417      H2424   1.084       .  S
C2418      C2419   1.418       .  A
C2419      C2420   1.407       .  A
C2419      C2426   1.504       .  S
C2420      C2421   1.403       .  A
C2420      H2425   1.084       .  S
C2421      C2422   1.410       .  A
C2422      C2423   1.504       .  S
C2423      H2427   1.111       .  S
C2423      H2428   1.110       .  S
C2423      H2429   1.104       .  S
C2426      H2430   1.106       .  S
C2426      H2431   1.111       .  S
C2426      H2432   1.111       .  S
C2433      C2434   1.407       .  A
C2433      C2438   1.400       .  A
C2433      H2440   1.083       .  S
C2434      C2435   1.421       .  A
C2435      C2436   1.405       .  A
C2435      C2442   1.507       .  S
C2436      C2437   1.402       .  A
C2436      H2441   1.084       .  S
C2437      C2438   1.415       .  A
C2438      C2439   1.509       .  S
C2439      H2443   1.111       .  S
C2439      H2444   1.110       .  S
C2439      H2445   1.108       .  S
C2442      H2446   1.110       .  S
C2442      H2447   1.110       .  S
C2442      H2448   1.111       .  S
C2449      C2450   1.404       .  A
C2449      C2454   1.407       .  A
C2449      H2456   1.084       .  S
C2450      C2451   1.420       .  A
C2451      C2452   1.407       .  A
C2451      C2458   1.508       .  S
C2452      C2453   1.399       .  A
C2452      H2457   1.084       .  S
C2453      C2454   1.411       .  A
C2454      C2455   1.506       .  S
C2455      H2459   1.111       .  S
C2455      H2460   1.110       .  S
C2455      H2461   1.110       .  S
C2458      H2462   1.110       .  S
C2458      H2463   1.108       .  S
C2458      H2464   1.111       .  S
C2465      C2466   1.407       .  A
C2465      C2470   1.411       .  A
C2465      H2472   1.084       .  S
C2466      C2467   1.423       .  A
C2467      C2468   1.405       .  A
C2467      C2474   1.510       .  S
C2468      C2469   1.400       .  A
C2468      H2473   1.085       .  S
C2469      C2470   1.414       .  A
C2470      C2471   1.506       .  S
C2471      H2475   1.111       .  S
C2471      H2476   1.110       .  S
C2471      H2477   1.110       .  S
C2474      H2478   1.111       .  S
C2474      H2479   1.108       .  S
C2474      H2480   1.111       .  S
C2481      C2482   1.404       .  A
C2481      C2486   1.400       .  A
C2481      H2488   1.084       .  S
C2482      C2483   1.418       .  A
C2483      C2484   1.403       .  A
C2483      C2490   1.508       .  S
C2484      C2485   1.400       .  A
C2484      H2489   1.084       .  S
C2485      C2486   1.410       .  A
C2486      C2487   1.507       .  S
C2487      H2491   1.111       .  S
C2487      H2492   1.109       .  S
C2487      H2493   1.110       .  S
C2490      H2494   1.111       .  S
C2490      H2495   1.109       .  S
C2490      H2496   1.111       .  S
C2497      C2498   1.409       .  A
C2497      C2502   1.406       .  A
C2497      H2504   1.084       .  S
C2498      C2499   1.413       .  A
C2499      C2500   1.397       .  A
C2499      C2506   1.509       .  S
C2500      C2501   1.405       .  A
C2500      H2505   1.084       .  S
C2501      C2502   1.409       .  A
C2502      C2503   1.504       .  S
C2503      H2507   1.111       .  S
C2503      H2508   1.107       .  S
C2503      H2509   1.111       .  S
C2506      H2510   1.109       .  S
C2506      H2511   1.111       .  S
C2506      H2512   1.111       .  S
C2513      C2514   1.405       .  A
C2513      C2518   1.403       .  A
C2513      H2520   1.084       .  S
C2514      C2515   1.417       .  A
C2515      C2516   1.405       .  A
C2515      C2522   1.507       .  S
C2516      C2517   1.400       .  A
C2516      H2521   1.084       .  S
C2517      C2518   1.408       .  A
C2518      C2519   1.507       .  S
C2519      H2523   1.111       .  S
C2519      H2524   1.111       .  S
C2519      H2525   1.110       .  S
C2522      H2526   1.110       .  S
C2522      H2527   1.109       .  S
C2522      H2528   1.111       .  S
C2529      C2530   1.404       .  A
C2529      C2534   1.408       .  A
C2529      H2536   1.084       .  S
C2530      C2531   1.420       .  A
C2531      C2532   1.397       .  A
C2531      C2538   1.510       .  S
C2532      C2533   1.403       .  A
C2532      H2537   1.083       .  S
C2533      C2534   1.420       .  A
C2534      C2535   1.506       .  S
C2535      H2539   1.111       .  S
C2535      H2540   1.109       .  S
C2535      H2541   1.110       .  S
C2538      H2542   1.109       .  S
C2538      H2543   1.110       .  S
C2538      H2544   1.111       .  S
C2545      C2546   1.406       .  A
C2545      C2550   1.397       .  A
C2545      H2552   1.084       .  S
C2546      C2547   1.414       .  A
C2547      C2548   1.409       .  A
C2547      C2554   1.504       .  S
C2548      C2549   1.407       .  A
C2548      H2553   1.084       .  S
C2549      C2550   1.415       .  A
C2550      C2551   1.511       .  S
C2551      H2555   1.111       .  S
C2551      H2556   1.111       .  S
C2551      H2557   1.109       .  S
C2554      H2558   1.110       .  S
C2554      H2559   1.108       .  S
C2554      H2560   1.111       .  S
C2561      C2562   1.403       .  A
C2561      C2566   1.403       .  A
C2561      H2568   1.084       .  S
C2562      C2563   1.413       .  A
C2563      C2564   1.399       .  A
C2563      C2570   1.509       .  S
C2564      C2565   1.404       .  A
C2564      H2569   1.084       .  S
C2565      C2566   1.417       .  A
C2566      C2567   1.508       .  S
C2567      H2571   1.111       .  S
C2567      H2572   1.110       .  S
C2567      H2573   1.109       .  S
C2570      H2574   1.108       .  S
C2570      H2575   1.110       .  S
C2570      H2576   1.111       .  S
C2577      C2578   1.397       .  A
C2577      C2582   1.405       .  A
C2577      H2584   1.085       .  S
C2578      C2579   1.412       .  A
C2579      C2580   1.401       .  A
C2579      C2586   1.509       .  S
C2580      C2581   1.408       .  A
C2580      H2585   1.082       .  S
C2581      C2582   1.427       .  A
C2582      C2583   1.508       .  S
C2583      H2587   1.111       .  S
C2583      H2588   1.110       .  S
C2583      H2589   1.110       .  S
C2586      H2590   1.110       .  S
C2586      H2591   1.108       .  S
C2586      H2592   1.111       .  S
C2593      C2594   1.401       .  A
C2593      C2598   1.400       .  A
C2593      H2600   1.085       .  S
C2594      C2595   1.413       .  A
C2595      C2596   1.402       .  A
C2595      C2602   1.507       .  S
C2596      C2597   1.403       .  A
C2596      H2601   1.084       .  S
C2597      C2598   1.415       .  A
C2598      C2599   1.508       .  S
C2599      H2603   1.111       .  S
C2599      H2604   1.110       .  S
C2599      H2605   1.109       .  S
C2602      H2606   1.107       .  S
C2602      H2607   1.111       .  S
C2602      H2608   1.111       .  S
C2609      C2610   1.403       .  A
C2609      C2614   1.402       .  A
C2609      H2616   1.084       .  S
C2610      C2611   1.417       .  A
C2611      C2612   1.403       .  A
C2611      C2618   1.506       .  S
C2612      C2613   1.402       .  A
C2612      H2617   1.084       .  S
C2613      C2614   1.419       .  A
C2614      C2615   1.510       .  S
C2615      H2619   1.111       .  S
C2615      H2620   1.109       .  S
C2615      H2621   1.110       .  S
C2618      H2622   1.109       .  S
C2618      H2623   1.110       .  S
C2618      H2624   1.111       .  S
C2625      C2626   1.403       .  A
C2625      C2630   1.405       .  A
C2625      H2632   1.084       .  S
C2626      C2627   1.411       .  A
C2627      C2628   1.400       .  A
C2627      C2634   1.508       .  S
C2628      C2629   1.403       .  A
C2628      H2633   1.083       .  S
C2629      C2630   1.411       .  A
C2630      C2631   1.504       .  S
C2631      H2635   1.111       .  S
C2631      H2636   1.104       .  S
C2631      H2637   1.110       .  S
C2634      H2638   1.108       .  S
C2634      H2639   1.110       .  S
C2634      H2640   1.111       .  S
C2641      C2642   1.402       .  A
C2641      C2646   1.401       .  A
C2641      H2648   1.084       .  S
C2642      C2643   1.417       .  A
C2643      C2644   1.403       .  A
C2643      C2650   1.509       .  S
C2644      C2645   1.404       .  A
C2644      H2649   1.084       .  S
C2645      C2646   1.416       .  A
C2646      C2647   1.507       .  S
C2647      H2651   1.111       .  S
C2647      H2652   1.110       .  S
C2647      H2653   1.108       .  S
C2650      H2654   1.108       .  S
C2650      H2655   1.111       .  S
C2650      H2656   1.111       .  S
C2657      C2658   1.403       .  A
C2657      C2662   1.404       .  A
C2657      H2664   1.084       .  S
C2658      C2659   1.414       .  A
C2659      C2660   1.403       .  A
C2659      C2666   1.507       .  S
C2660      C2661   1.400       .  A
C2660      H2665   1.084       .  S
C2661      C2662   1.410       .  A
C2662      C2663   1.506       .  S
C2663      H2667   1.111       .  S
C2663      H2668   1.111       .  S
C2663      H2669   1.110       .  S
C2666      H2670   1.110       .  S
C2666      H2671   1.109       .  S
C2666      H2672   1.111       .  S
C2673      C2674   1.405       .  A
C2673      C2678   1.401       .  A
C2673      H2680   1.084       .  S
C2674      C2675   1.412       .  A
C2675      C2676   1.405       .  A
C2675      C2682   1.507       .  S
C2676      C2677   1.407       .  A
C2676      H2681   1.084       .  S
C2677      C2678   1.413       .  A
C2678      C2679   1.506       .  S
C2679      H2683   1.111   1_545  S
C2679      H2684   1.108       .  S
C2679      H2685   1.110   1_545  S
C2682      H2686   1.108       .  S
C2682      H2687   1.110       .  S
C2682      H2688   1.111       .  S
C2689      C2690   1.408       .  A
C2689      C2694   1.407       .  A
C2689      H2696   1.084       .  S
C2690      C2691   1.418       .  A
C2691      C2692   1.402       .  A
C2691      C2698   1.509       .  S
C2692      C2693   1.406       .  A
C2692      H2697   1.084       .  S
C2693      C2694   1.415       .  A
C2694      C2695   1.506       .  S
C2695      H2699   1.111       .  S
C2695      H2700   1.106       .  S
C2695      H2701   1.111       .  S
C2698      H2702   1.107       .  S
C2698      H2703   1.111       .  S
C2698      H2704   1.111       .  S
C2705      C2706   1.403       .  A
C2705      C2710   1.398       .  A
C2705      H2712   1.084       .  S
C2706      C2707   1.420       .  A
C2707      C2708   1.406   1_565  A
C2707      C2714   1.508       .  S
C2708      C2709   1.401       .  A
C2708      H2713   1.084       .  S
C2709      C2710   1.416   1_545  A
C2710      C2711   1.510       .  S
C2711      H2715   1.111       .  S
C2711      H2716   1.108       .  S
C2711      H2717   1.110       .  S
C2714      H2718   1.108       .  S
C2714      H2719   1.111       .  S
C2714      H2720   1.111   1_565  S
C2721      C2722   1.405       .  A
C2721      C2726   1.403       .  A
C2721      H2728   1.084       .  S
C2722      C2723   1.414       .  A
C2723      C2724   1.406       .  A
C2723      C2730   1.508       .  S
C2724      C2725   1.410       .  A
C2724      H2729   1.083       .  S
C2725      C2726   1.415       .  A
C2726      C2727   1.500       .  S
C2727      H2731   1.111       .  S
C2727      H2732   1.109       .  S
C2727      H2733   1.109       .  S
C2730      H2734   1.111       .  S
C2730      H2735   1.110   1_554  S
C2730      H2736   1.111       .  S
C2737      C2738   1.403       .  A
C2737      C2742   1.408       .  A
C2737      H2744   1.084       .  S
C2738      C2739   1.414       .  A
C2739      C2740   1.404       .  A
C2739      C2746   1.507       .  S
C2740      C2741   1.405       .  A
C2740      H2745   1.084       .  S
C2741      C2742   1.417       .  A
C2742      C2743   1.501       .  S
C2743      H2747   1.111       .  S
C2743      H2748   1.105       .  S
C2743      H2749   1.110       .  S
C2746      H2750   1.110       .  S
C2746      H2751   1.107       .  S
C2746      H2752   1.111       .  S
C2753      C2754   1.401       .  A
C2753      C2758   1.403       .  A
C2753      H2760   1.085       .  S
C2754      C2755   1.416       .  A
C2755      C2756   1.407       .  A
C2755      C2762   1.507       .  S
C2756      C2757   1.403       .  A
C2756      H2761   1.084       .  S
C2757      C2758   1.419       .  A
C2758      C2759   1.509       .  S
C2759      H2763   1.111       .  S
C2759      H2764   1.108       .  S
C2759      H2765   1.110       .  S
C2762      H2766   1.110       .  S
C2762      H2767   1.109       .  S
C2762      H2768   1.111       .  S
C2769      C2770   1.405       .  A
C2769      C2774   1.404       .  A
C2769      H2776   1.084       .  S
C2770      C2771   1.420       .  A
C2771      C2772   1.410       .  A
C2771      C2778   1.506       .  S
C2772      C2773   1.402       .  A
C2772      H2777   1.084       .  S
C2773      C2774   1.414       .  A
C2774      C2775   1.508       .  S
C2775      H2779   1.111       .  S
C2775      H2780   1.111       .  S
C2775      H2781   1.109       .  S
C2778      H2782   1.111       .  S
C2778      H2783   1.109       .  S
C2778      H2784   1.111       .  S
C2785      C2786   1.399       .  A
C2785      C2790   1.407       .  A
C2785      H2792   1.084       .  S
C2786      C2787   1.407       .  A
C2787      C2788   1.402       .  A
C2787      C2794   1.507       .  S
C2788      C2789   1.407       .  A
C2788      H2793   1.084       .  S
C2789      C2790   1.422       .  A
C2790      C2791   1.507       .  S
C2791      H2795   1.111       .  S
C2791      H2796   1.109       .  S
C2791      H2797   1.111       .  S
C2794      H2798   1.110       .  S
C2794      H2799   1.110       .  S
C2794      H2800   1.111       .  S
C2801      C2802   1.403       .  A
C2801      C2806   1.408       .  A
C2801      H2808   1.084       .  S
C2802      C2803   1.412       .  A
C2803      C2804   1.402       .  A
C2803      C2810   1.509   1_455  S
C2804      C2805   1.409       .  A
C2804      H2809   1.082       .  S
C2805      C2806   1.423       .  A
C2806      C2807   1.508       .  S
C2807      H2811   1.111       .  S
C2807      H2812   1.110       .  S
C2807      H2813   1.110       .  S
C2810      H2814   1.108       .  S
C2810      H2815   1.110       .  S
C2810      H2816   1.111       .  S
C2817      C2818   1.404       .  A
C2817      C2822   1.405       .  A
C2817      H2824   1.084       .  S
C2818      C2819   1.416       .  A
C2819      C2820   1.405       .  A
C2819      C2826   1.506       .  S
C2820      C2821   1.404       .  A
C2820      H2825   1.084       .  S
C2821      C2822   1.417       .  A
C2822      C2823   1.507       .  S
C2823      H2827   1.111       .  S
C2823      H2828   1.111       .  S
C2823      H2829   1.108       .  S
C2826      H2830   1.108       .  S
C2826      H2831   1.110       .  S
C2826      H2832   1.111       .  S
C2833      C2834   1.401       .  A
C2833      C2838   1.406       .  A
C2833      H2840   1.084       .  S
C2834      C2835   1.408       .  A
C2835      C2836   1.400       .  A
C2835      C2842   1.508       .  S
C2836      C2837   1.407       .  A
C2836      H2841   1.082       .  S
C2837      C2838   1.420       .  A
C2838      C2839   1.508       .  S
C2839      H2843   1.111       .  S
C2839      H2844   1.108       .  S
C2839      H2845   1.110       .  S
C2842      H2846   1.110       .  S
C2842      H2847   1.110       .  S
C2842      H2848   1.111       .  S
C2849      C2850   1.405       .  A
C2849      C2854   1.409       .  A
C2849      H2856   1.084   1_655  S
C2850      C2851   1.421       .  A
C2851      C2852   1.412       .  A
C2851      C2858   1.504       .  S
C2852      C2853   1.404       .  A
C2852      H2857   1.084       .  S
C2853      C2854   1.420       .  A
C2854      C2855   1.509       .  S
C2855      H2859   1.111   1_655  S
C2855      H2860   1.108       .  S
C2855      H2861   1.110       .  S
C2858      H2862   1.110       .  S
C2858      H2863   1.108       .  S
C2858      H2864   1.111       .  S
C2865      C2866   1.399       .  A
C2865      C2870   1.405       .  A
C2865      H2872   1.084       .  S
C2866      C2867   1.414       .  A
C2867      C2868   1.411       .  A
C2867      C2874   1.507       .  S
C2868      C2869   1.411       .  A
C2868      H2873   1.083       .  S
C2869      C2870   1.428       .  A
C2870      C2871   1.510       .  S
C2871      H2875   1.111       .  S
C2871      H2876   1.110       .  S
C2871      H2877   1.110       .  S
C2874      H2878   1.111       .  S
C2874      H2879   1.109       .  S
C2874      H2880   1.111       .  S
C2881      C2882   1.409       .  A
C2881      C2886   1.398       .  A
C2881      H2888   1.083       .  S
C2882      C2883   1.422       .  A
C2883      C2884   1.401       .  A
C2883      C2890   1.506       .  S
C2884      C2885   1.400       .  A
C2884      H2889   1.084       .  S
C2885      C2886   1.411       .  A
C2886      C2887   1.508       .  S
C2887      H2891   1.111       .  S
C2887      H2892   1.110       .  S
C2887      H2893   1.109       .  S
C2890      H2894   1.105       .  S
C2890      H2895   1.110       .  S
C2890      H2896   1.111       .  S
C2897      C2898   1.406       .  A
C2897      C2902   1.404       .  A
C2897      H2904   1.084       .  S
C2898      C2899   1.420       .  A
C2899      C2900   1.402       .  A
C2899      C2906   1.509       .  S
C2900      C2901   1.399       .  A
C2900      H2905   1.085       .  S
C2901      C2902   1.409       .  A
C2902      C2903   1.507       .  S
C2903      H2907   1.111       .  S
C2903      H2908   1.110       .  S
C2903      H2909   1.111       .  S
C2906      H2910   1.109       .  S
C2906      H2911   1.110       .  S
C2906      H2912   1.111       .  S
C2913      C2914   1.408       .  A
C2913      C2918   1.405       .  A
C2913      H2920   1.084       .  S
C2914      C2915   1.418       .  A
C2915      C2916   1.402       .  A
C2915      C2922   1.508       .  S
C2916      C2917   1.405       .  A
C2916      H2921   1.084       .  S
C2917      C2918   1.415       .  A
C2918      C2919   1.508       .  S
C2919      H2923   1.111       .  S
C2919      H2924   1.110       .  S
C2919      H2925   1.110       .  S
C2922      H2926   1.109       .  S
C2922      H2927   1.111       .  S
C2922      H2928   1.111       .  S
C2929      C2930   1.400       .  A
C2929      C2934   1.406       .  A
C2929      H2936   1.085       .  S
C2930      C2931   1.408       .  A
C2931      C2932   1.405       .  A
C2931      C2938   1.507       .  S
C2932      C2933   1.410       .  A
C2932      H2937   1.081       .  S
C2933      C2934   1.422       .  A
C2934      C2935   1.507       .  S
C2935      H2939   1.111       .  S
C2935      H2940   1.109       .  S
C2935      H2941   1.109       .  S
C2938      H2942   1.110       .  S
C2938      H2943   1.110       .  S
C2938      H2944   1.111       .  S
C2945      C2946   1.401       .  A
C2945      C2950   1.408       .  A
C2945      H2952   1.084       .  S
C2946      C2947   1.406       .  A
C2947      C2948   1.400       .  A
C2947      C2954   1.507       .  S
C2948      C2949   1.409       .  A
C2948      H2953   1.080       .  S
C2949      C2950   1.422       .  A
C2950      C2951   1.508       .  S
C2951      H2955   1.111       .  S
C2951      H2956   1.110       .  S
C2951      H2957   1.110       .  S
C2954      H2958   1.107       .  S
C2954      H2959   1.111       .  S
C2954      H2960   1.111       .  S
C2961      C2962   1.403       .  A
C2961      C2966   1.412       .  A
C2961      H2968   1.084       .  S
C2962      C2963   1.409       .  A
C2963      C2964   1.402       .  A
C2963      C2970   1.508       .  S
C2964      C2965   1.407       .  A
C2964      H2969   1.084       .  S
C2965      C2966   1.419       .  A
C2966      C2967   1.504       .  S
C2967      H2971   1.111       .  S
C2967      H2972   1.110       .  S
C2967      H2973   1.109       .  S
C2970      H2974   1.111       .  S
C2970      H2975   1.110       .  S
C2970      H2976   1.111       .  S
C2977      C2978   1.411       .  A
C2977      C2982   1.412       .  A
C2977      H2984   1.084       .  S
C2978      C2979   1.417       .  A
C2979      C2980   1.405       .  A
C2979      C2986   1.497       .  S
C2980      C2981   1.404       .  A
C2980      H2985   1.084       .  S
C2981      C2982   1.419       .  A
C2982      C2983   1.508       .  S
C2983      H2987   1.111       .  S
C2983      H2988   1.110       .  S
C2983      H2989   1.109       .  S
C2986      H2990   1.103       .  S
C2986      H2991   1.109       .  S
C2986      H2992   1.111       .  S
C2993      C2994   1.406       .  A
C2993      C2998   1.405       .  A
C2993      H3000   1.084       .  S
C2994      C2995   1.414       .  A
C2995      C2996   1.404       .  A
C2995      C3002   1.506       .  S
C2996      C2997   1.406       .  A
C2996      H3001   1.084       .  S
C2997      C2998   1.416       .  A
C2998      C2999   1.507       .  S
C2999      H3003   1.111       .  S
C2999      H3004   1.110       .  S
C2999      H3005   1.109       .  S
C3002      H3006   1.109       .  S
C3002      H3007   1.108       .  S
C3002      H3008   1.111       .  S
C3009      C3010   1.406       .  A
C3009      C3014   1.418       .  A
C3009      H3016   1.084       .  S
C3010      C3011   1.413       .  A
C3011      C3012   1.403       .  A
C3011      C3018   1.509       .  S
C3012      C3013   1.408       .  A
C3012      H3017   1.082       .  S
C3013      C3014   1.422       .  A
C3014      C3015   1.506       .  S
C3015      H3019   1.111       .  S
C3015      H3020   1.110       .  S
C3015      H3021   1.110       .  S
C3018      H3022   1.108       .  S
C3018      H3023   1.110       .  S
C3018      H3024   1.111       .  S
C3025      C3026   1.406       .  A
C3025      C3030   1.400       .  A
C3025      H3032   1.083       .  S
C3026      C3027   1.422       .  A
C3027      C3028   1.408       .  A
C3027      C3034   1.507       .  S
C3028      C3029   1.400       .  A
C3028      H3033   1.084       .  S
C3029      C3030   1.410       .  A
C3030      C3031   1.509       .  S
C3031      H3035   1.111       .  S
C3031      H3036   1.110       .  S
C3031      H3037   1.109       .  S
C3034      H3038   1.110       .  S
C3034      H3039   1.110       .  S
C3034      H3040   1.111       .  S
C3041      C3042   1.408       .  A
C3041      C3046   1.407       .  A
C3041      H3048   1.084       .  S
C3042      C3043   1.417       .  A
C3043      C3044   1.400       .  A
C3043      C3050   1.509       .  S
C3044      C3045   1.402       .  A
C3044      H3049   1.085       .  S
C3045      C3046   1.414       .  A
C3046      C3047   1.507       .  S
C3047      H3051   1.111       .  S
C3047      H3052   1.106       .  S
C3047      H3053   1.110       .  S
C3050      H3054   1.110       .  S
C3050      H3055   1.109       .  S
C3050      H3056   1.111       .  S
C3057      C3058   1.400       .  A
C3057      C3062   1.400       .  A
C3057      H3064   1.085       .  S
C3058      C3059   1.414       .  A
C3059      C3060   1.404       .  A
C3059      C3066   1.507       .  S
C3060      C3061   1.403       .  A
C3060      H3065   1.084       .  S
C3061      C3062   1.416       .  A
C3062      C3063   1.509       .  S
C3063      H3067   1.111       .  S
C3063      H3068   1.110       .  S
C3063      H3069   1.108       .  S
C3066      H3070   1.108       .  S
C3066      H3071   1.111       .  S
C3066      H3072   1.111       .  S
C3073      C3074   1.407       .  A
C3073      C3078   1.407       .  A
C3073      H3080   1.084       .  S
C3074      C3075   1.425       .  A
C3075      C3076   1.406       .  A
C3075      C3082   1.510       .  S
C3076      C3077   1.402       .  A
C3076      H3081   1.084       .  S
C3077      C3078   1.418       .  A
C3078      C3079   1.509       .  S
C3079      H3083   1.111       .  S
C3079      H3084   1.109       .  S
C3079      H3085   1.110       .  S
C3082      H3086   1.111       .  S
C3082      H3087   1.110       .  S
C3082      H3088   1.111       .  S
C3089      C3090   1.410       .  A
C3089      C3094   1.403       .  A
C3089      H3096   1.084       .  S
C3090      C3091   1.419       .  A
C3091      C3092   1.411       .  A
C3091      C3098   1.507       .  S
C3092      C3093   1.405       .  A
C3092      H3097   1.084       .  S
C3093      C3094   1.412       .  A
C3094      C3095   1.508       .  S
C3095      H3099   1.111       .  S
C3095      H3100   1.111       .  S
C3095      H3101   1.108       .  S
C3098      H3102   1.110       .  S
C3098      H3103   1.110       .  S
C3098      H3104   1.111       .  S
C3105      C3106   1.409       .  A
C3105      C3110   1.402       .  A
C3105      H3112   1.084       .  S
C3106      C3107   1.413       .  A
C3107      C3108   1.405       .  A
C3107      C3114   1.507       .  S
C3108      C3109   1.409       .  A
C3108      H3113   1.084       .  S
C3109      C3110   1.412       .  A
C3110      C3111   1.507       .  S
C3111      H3115   1.111       .  S
C3111      H3116   1.107       .  S
C3111      H3117   1.110       .  S
C3114      H3118   1.110       .  S
C3114      H3119   1.110       .  S
C3114      H3120   1.111       .  S
C3121      C3122   1.409       .  A
C3121      C3126   1.404       .  A
C3121      H3128   1.083   1_455  S
C3122      C3123   1.420       .  A
C3123      C3124   1.406       .  A
C3123      C3130   1.505       .  S
C3124      C3125   1.407       .  A
C3124      H3129   1.083       .  S
C3125      C3126   1.423       .  A
C3126      C3127   1.510       .  S
C3127      H3131   1.111   1_455  S
C3127      H3132   1.110   1_455  S
C3127      H3133   1.110       .  S
C3130      H3134   1.110       .  S
C3130      H3135   1.110       .  S
C3130      H3136   1.111       .  S
C3137      C3138   1.406       .  A
C3137      C3142   1.405       .  A
C3137      H3144   1.084       .  S
C3138      C3139   1.414       .  A
C3139      C3140   1.402       .  A
C3139      C3146   1.509       .  S
C3140      C3141   1.405       .  A
C3140      H3145   1.084       .  S
C3141      C3142   1.413       .  A
C3142      C3143   1.506       .  S
C3143      H3147   1.111       .  S
C3143      H3148   1.110       .  S
C3143      H3149   1.110       .  S
C3146      H3150   1.110       .  S
C3146      H3151   1.107       .  S
C3146      H3152   1.111       .  S
C3153      C3154   1.409       .  A
C3153      C3158   1.406       .  A
C3153      H3160   1.083       .  S
C3154      C3155   1.421       .  A
C3155      C3156   1.400       .  A
C3155      C3162   1.510       .  S
C3156      C3157   1.398       .  A
C3156      H3161   1.085       .  S
C3157      C3158   1.408       .  A
C3158      C3159   1.506       .  S
C3159      H3163   1.111       .  S
C3159      H3164   1.110   1_455  S
C3159      H3165   1.110       .  S
C3162      H3166   1.110       .  S
C3162      H3167   1.110       .  S
C3162      H3168   1.111       .  S
C3169      C3170   1.398       .  A
C3169      C3174   1.402       .  A
C3169      H3176   1.085       .  S
C3170      C3171   1.410       .  A
C3171      C3172   1.403       .  A
C3171      C3178   1.508       .  S
C3172      C3173   1.410       .  A
C3172      H3177   1.083       .  S
C3173      C3174   1.426       .  A
C3174      C3175   1.508       .  S
C3175      H3179   1.111       .  S
C3175      H3180   1.107   1_556  S
C3175      H3181   1.110       .  S
C3178      H3182   1.111       .  S
C3178      H3183   1.110       .  S
C3178      H3184   1.109       .  S
C3185      C3186   1.401       .  A
C3185      C3190   1.403       .  A
C3185      H3192   1.084       .  S
C3186      C3187   1.416       .  A
C3187      C3188   1.405       .  A
C3187      C3194   1.508       .  S
C3188      C3189   1.405       .  A
C3188      H3193   1.084       .  S
C3189      C3190   1.420       .  A
C3190      C3191   1.507       .  S
C3191      H3195   1.111       .  S
C3191      H3196   1.107       .  S
C3191      H3197   1.110       .  S
C3194      H3198   1.107       .  S
C3194      H3199   1.110       .  S
C3194      H3200   1.111       .  S
C3201      C3202   1.408       .  A
C3201      C3206   1.408       .  A
C3201      H3208   1.084       .  S
C3202      C3203   1.420       .  A
C3203      C3204   1.405   1_655  A
C3203      C3210   1.508   1_655  S
C3204      C3205   1.401   1_455  A
C3204      H3209   1.085       .  S
C3205      C3206   1.410       .  A
C3206      C3207   1.506       .  S
C3207      H3211   1.111       .  S
C3207      H3212   1.110       .  S
C3207      H3213   1.111       .  S
C3210      H3214   1.111       .  S
C3210      H3215   1.109       .  S
C3210      H3216   1.111       .  S
C3217      C3218   1.402       .  A
C3217      C3222   1.400       .  A
C3217      H3224   1.084       .  S
C3218      C3219   1.414       .  A
C3219      C3220   1.403       .  A
C3219      C3226   1.508       .  S
C3220      C3221   1.403       .  A
C3220      H3225   1.085       .  S
C3221      C3222   1.413       .  A
C3222      C3223   1.508       .  S
C3223      H3227   1.111       .  S
C3223      H3228   1.110       .  S
C3223      H3229   1.109       .  S
C3226      H3230   1.110       .  S
C3226      H3231   1.109       .  S
C3226      H3232   1.111       .  S
C3233      C3234   1.407       .  A
C3233      C3238   1.408       .  A
C3233      H3240   1.084       .  S
C3234      C3235   1.413       .  A
C3235      C3236   1.405       .  A
C3235      C3242   1.509       .  S
C3236      C3237   1.412       .  A
C3236      H3241   1.082       .  S
C3237      C3238   1.421       .  A
C3238      C3239   1.508       .  S
C3239      H3243   1.111       .  S
C3239      H3244   1.110       .  S
C3239      H3245   1.110       .  S
C3242      H3246   1.111   1_545  S
C3242      H3247   1.110   1_655  S
C3242      H3248   1.111   1_545  S
C3249      C3250   1.403       .  A
C3249      C3254   1.406       .  A
C3249      H3256   1.084       .  S
C3250      C3251   1.408       .  A
C3251      C3252   1.404       .  A
C3251      C3258   1.507   1_455  S
C3252      C3253   1.408       .  A
C3252      H3257   1.084       .  S
C3253      C3254   1.416       .  A
C3254      C3255   1.507       .  S
C3255      H3259   1.111       .  S
C3255      H3260   1.110       .  S
C3255      H3261   1.111       .  S
C3258      H3262   1.110       .  S
C3258      H3263   1.110       .  S
C3258      H3264   1.111       .  S
