geometry optimzed in LAMMPS
_audit_creation_date              2020-11-30 
_audit_creation_method            'lammps2cif' 
_symmetry_space_group_name_H-M    'P1' 
_symmetry_Int_Tables_number       1 
_symmetry_cell_setting            triclinic 
loop_ 
_symmetry_equiv_pos_as_xyz 
  x,y,z 
_cell_length_a                    31.62674514 
_cell_length_b                    31.553888578518293 
_cell_length_c                    37.06311193712757 
_cell_angle_alpha                 89.19588077108082 
_cell_angle_beta                  90.15430347079979 
_cell_angle_gamma                 121.4719849788622 
loop_ 
_atom_site_label 
_atom_site_type_symbol 
_atom_site_fract_x 
_atom_site_fract_y 
_atom_site_fract_z 
_atom_site_charge 
C1          C  0.70729506  0.32273649  0.01041726     0.04000
C2          C  0.65908415  0.28123772  0.01426319    -0.12100
C3          C  0.61773841  0.28634998  0.51125318     0.01500
C4          C  0.62489025  0.33391104  0.50608638    -0.10700
C5          C  0.67303544  0.37609134  0.50340236     0.04000
C6          C  0.71392100  0.36996043  0.00478317    -0.10100
H7          H  0.65360497  0.24457327  0.01803602     0.09600
H8          H  0.59301340  0.33802537  0.50417623     0.07100
H9          H  0.75111344  0.40222543  0.00271351     0.07000
C10         C  0.33857463  0.71870902  0.49469868     0.04000
C11         C  0.38376613  0.72195556  0.48735370    -0.12100
C12         C  0.38672338  0.67893512  0.48690607     0.01500
C13         C  0.34299682  0.63247714  0.49243672    -0.10700
C14         C  0.29750242  0.62864665  0.49910080     0.04000
C15         C  0.29575394  0.67197106  0.50107578    -0.10100
H16         H  0.41640704  0.75812350  0.48222450     0.09600
H17         H  0.34404346  0.59876172  0.49223065     0.07100
H18         H  0.26056582  0.66917177  0.50571549     0.07000
C19         C  0.71170750  0.70765198  0.49966073    -0.01600
C20         C  0.00115139  0.29121823  0.49527138    -0.01600
C21         C  0.27754029  0.99424987  0.49809187    -0.01600
O22         O  0.92508413  0.96728613  0.29706139    -0.84500
O23         O  0.96579942  0.06520806  0.27657804    -0.81500
C24         C  0.00198306  0.08511780  0.29803585     0.99000
O25         O  0.03783091  0.07911007  0.29373667    -0.81600
O26         O  0.09103401  0.03737769  0.27713660    -0.84200
C27         C  0.07614228  0.99889664  0.29670584     1.03500
O28         O  0.03495168  0.95977803  0.29112586    -0.77000
O29         O  0.93473439  0.90752941  0.27722605    -0.77200
C30         C  0.91853393  0.92452836  0.30062411     1.03500
O31         O  0.89958288  0.93681260  0.22322206    -0.84500
O32         O  0.95299892  0.03522140  0.20255946    -0.81500
C33         C  0.99013733  0.07802320  0.19665676     0.99000
O34         O  0.02762952  0.09601811  0.21728603    -0.81600
O35         O  0.07688429  0.04806764  0.20178031    -0.84200
C36         C  0.08044242  0.01078335  0.19628248     1.03500
O37         O  0.05657898  0.97158395  0.21528752    -0.77000
O38         O  0.95716199  0.92594932  0.20103198    -0.77100
C39         C  0.91358615  0.91742248  0.20015593     1.03400
Cr40       Cr  0.94027936  0.00118692  0.24969529     1.93700
Cr41       Cr  0.05377360  0.06064928  0.24742941     1.93200
Cr42       Cr  0.99596871  0.94573178  0.24620054     1.39100
O43         O  0.99707272  0.00260026  0.24749706    -1.22200
C44         C  0.18002046  0.97479402  0.07145292     0.16800
C45         C  0.13790688  0.95571130  0.09348153    -0.32200
C46         C  0.13870392  0.98583491  0.12114396     0.21200
C47         C  0.17923044  0.03329998  0.12625186     0.03400
C48         C  0.22187467  0.05195188  0.10462859    -0.21900
C49         C  0.22141213  0.02131191  0.07731064     0.12600
S50         S  0.18521831  0.94469450  0.03572924    -0.05600
C51         C  0.24564648  0.99384668  0.02947834    -0.09100
C52         C  0.25915684  0.03254730  0.05345625    -0.25700
S53         S  0.17143826  0.06498963  0.16001381    -0.02900
C54         C  0.11363775  0.01314179  0.16776491    -0.16300
C55         C  0.10126990  0.97373554  0.14529854    -0.14300
H56         H  0.10578421  0.91909547  0.08908924     0.21000
H57         H  0.25383317  0.08873900  0.10878635     0.17100
H58         H  0.29420628  0.06751592  0.05329641     0.19600
H59         H  0.06635904  0.93851911  0.14617785     0.12900
C60         C  0.19543257  0.96738257  0.41158853     0.16800
C61         C  0.16395953  0.94711505  0.38167176    -0.32200
C62         C  0.14650078  0.97558141  0.36528086     0.21200
C63         C  0.16066048  0.02241757  0.37773829     0.03400
C64         C  0.19113290  0.04204269  0.40794457    -0.21900
C65         C  0.20771824  0.01330675  0.42462886     0.12600
S66         S  0.22083244  0.93941009  0.43558662    -0.05600
C67         C  0.24820364  0.99021495  0.46386392    -0.09100
C68         C  0.23663465  0.02591862  0.45472722    -0.25700
S69         S  0.13778952  0.05234801  0.35353570    -0.02900
C70         C  0.10746581  0.00080232  0.32681302    -0.16300
C71         C  0.11510467  0.96254708  0.33624045    -0.14300
H72         H  0.15347604  0.91082703  0.37169632     0.21000
H73         H  0.20148897  0.07824747  0.41804534     0.17100
H74         H  0.24873222  0.05956440  0.46971684     0.19600
H75         H  0.09926298  0.92761946  0.32224902     0.12900
C76         C  0.97418329  0.20894986  0.40937050     0.16800
C77         C  0.95531592  0.18042419  0.37805827    -0.32200
C78         C  0.98113435  0.15907807  0.36399468     0.21200
C79         C  0.02374941  0.16609448  0.38042045     0.03400
C80         C  0.04224082  0.19420290  0.41169330    -0.21900
C81         C  0.01647364  0.21530707  0.42571070     0.12600
S82         S  0.94884875  0.23806393  0.43093984    -0.05600
C83         C  0.99633506  0.25988423  0.46230563    -0.09100
C84         C  0.02888832  0.24359420  0.45598137    -0.25700
S85         S  0.05036201  0.13806967  0.35945263    -0.02900
C86         C  0.00360199  0.11611553  0.32804715    -0.16300
C87         C  0.96914673  0.13007236  0.33383093    -0.14300
H88         H  0.92211697  0.17515292  0.36526074     0.21000
H89         H  0.07541967  0.19947402  0.42454092     0.17100
H90         H  0.06022973  0.25208785  0.47293512     0.19600
H91         H  0.93737323  0.11981189  0.31687000     0.12900
C92         C  0.96994487  0.13745290  0.11239636     0.16800
C93         C  0.95205374  0.14766273  0.08086574    -0.32200
C94         C  0.97954915  0.19587711  0.06616437     0.21200
C95         C  0.02300712  0.23216075  0.08199963     0.03400
C96         C  0.04119321  0.22189060  0.11336544    -0.21900
C97         C  0.01358775  0.17373019  0.12820270     0.12600
S98         S  0.94142901  0.08160391  0.13472075    -0.05600
C99         C  0.98884091  0.10720139  0.16572762    -0.09100
C100        C  0.02478596  0.15654120  0.15879136    -0.25700
S101        S  0.05081752  0.28813178  0.05998419    -0.02900
C102        C  0.00293284  0.26303630  0.02892648    -0.16300
C103        C  0.96806280  0.21306017  0.03578821    -0.14300
H104        H  0.91802426  0.11934896  0.06847158     0.21000
H105        H  0.07522119  0.25024361  0.12573678     0.17100
H106        H  0.05713595  0.17868351  0.17532280     0.19600
H107        H  0.93603934  0.19041063  0.01908776     0.12900
C108        C  0.77598146  0.76885034  0.40732668     0.16800
C109        C  0.79117471  0.77979397  0.37114244    -0.32200
C110        C  0.83223590  0.82711447  0.36309357     0.21200
C111        C  0.85627616  0.86221475  0.38973163     0.03400
C112        C  0.84145248  0.85099807  0.42579004    -0.21900
C113        C  0.80119741  0.80349565  0.43387095     0.12600
S114        S  0.72654166  0.71430182  0.42300023    -0.05600
C115        C  0.74242805  0.73691793  0.46643487    -0.09100
C116        C  0.78196400  0.78594195  0.46740443    -0.25700
S117        S  0.90321264  0.91847546  0.37452673    -0.02900
C118        C  0.89109350  0.89418519  0.33195446    -0.16300
C119        C  0.85275591  0.84514149  0.32970940    -0.14300
H120        H  0.77183810  0.75277298  0.35023946     0.21000
H121        H  0.86043638  0.87817391  0.44667260     0.17100
H122        H  0.79576715  0.80841875  0.49130908     0.19600
H123        H  0.83975381  0.82448509  0.30491762     0.12900
C124        C  0.80595208  0.77492849  0.07760994     0.18000
C125        C  0.84964782  0.80071496  0.09769316    -0.32200
C126        C  0.85046208  0.82986440  0.12618134     0.21200
C127        C  0.80923600  0.83243519  0.13480524     0.03400
C128        C  0.76527923  0.80615619  0.11487044    -0.21900
C129        C  0.76484839  0.77780414  0.08581106     0.12600
S130        S  0.79895268  0.74036977  0.04076375    -0.05600
C131        C  0.74082611  0.73219208  0.03425116    -0.09100
C132        C  0.72691134  0.75233962  0.06171382    -0.25700
S133        S  0.81816773  0.87052826  0.17010307    -0.02900
C134        C  0.87823572  0.88346425  0.17304097    -0.16300
C135        C  0.89012727  0.85904764  0.14794985    -0.14300
H136        H  0.88202582  0.79906500  0.09085267     0.21000
H137        H  0.73327780  0.80872928  0.12115097     0.17100
H138        H  0.69168862  0.74997313  0.06381810     0.19600
H139        H  0.92598544  0.86260784  0.14564914     0.12900
C140        C  0.12862150  0.41582652  0.48107667     0.16800
C141        C  0.17602920  0.45345696  0.47011436    -0.32200
C142        C  0.19735384  0.49883708  0.48793160     0.21200
C143        C  0.17256880  0.50676597  0.51529373     0.03400
C144        C  0.12538811  0.46861700  0.52678128    -0.21900
C145        C  0.10419996  0.42292014  0.50908872     0.12600
S146        S  0.09610934  0.35888451  0.46198213    -0.05600
C147        C  0.04893869  0.34275337  0.49289317    -0.09100
C148        C  0.05885662  0.38121503  0.51620470    -0.25700
S149        S  0.20421697  0.56562473  0.03204652    -0.02900
C150        C  0.25165224  0.57917243  0.50224955    -0.16300
C151        C  0.24274780  0.53992747  0.48058763    -0.14300
H152        H  0.19530423  0.44775512  0.44839362     0.21000
H153        H  0.10592330  0.47439995  0.54830596     0.17100
H154        H  0.03392170  0.37856697  0.03730758     0.19600
H155        H  0.26772092  0.54173431  0.45984226     0.12900
C156        C  0.28897254  0.87798378  0.51726791     0.16800
C157        C  0.28428374  0.83386096  0.53028307    -0.32200
C158        C  0.30865342  0.81475021  0.51116499     0.21200
C159        C  0.33736752  0.83904393  0.48093093     0.03400
C160        C  0.34163673  0.88301302  0.46773769    -0.21900
C161        C  0.31621801  0.90149198  0.48640198     0.12600
S162        S  0.26224138  0.90687551  0.53659632    -0.05600
C163        C  0.28546333  0.95028168  0.50158237    -0.09100
C164        C  0.31433205  0.94274110  0.47724377    -0.25700
S165        S  0.36439553  0.80994465  0.46185045    -0.02900
C166        C  0.33551698  0.76384421  0.49438132    -0.16300
C167        C  0.30715338  0.77144522  0.51887582    -0.14300
H168        H  0.26219752  0.81499627  0.55404914     0.21000
H169        H  0.36328893  0.90163325  0.44376397     0.17100
H170        H  0.33283815  0.96633468  0.95394404     0.19600
H171        H  0.28637545  0.74647353  0.54106018     0.12900
C172        C  0.50034291  0.66487596  0.47675320     0.16800
C173        C  0.53192502  0.64623496  0.47591449    -0.32200
C174        C  0.58218608  0.67925956  0.48319141     0.21200
C175        C  0.60062803  0.72903251  0.48938894     0.03400
C176        C  0.56913899  0.74795615  0.48958777    -0.21900
C177        C  0.51840654  0.71442772  0.48380167     0.12600
S178        S  0.43768813  0.62959689  0.47250961    -0.05600
C179        C  0.43484349  0.68166665  0.48157859    -0.09100
C180        C  0.48118312  0.72442713  0.48639443    -0.25700
S181        S  0.66269785  0.76259537  0.99770802    -0.02900
C182        C  0.66348939  0.70806774  0.49593771    -0.16300
C183        C  0.61782860  0.66722662  0.48615510    -0.14300
H184        H  0.51758175  0.60721438  0.47132280     0.21000
H185        H  0.58325951  0.78665184  0.49530702     0.17100
H186        H  0.48760025  0.76047657  0.99338095     0.19600
H187        H  0.61062410  0.63044569  0.48081689     0.12900
C188        C  0.40644231  0.11813293  0.48407540     0.16800
C189        C  0.44676910  0.16359932  0.47185928    -0.32200
C190        C  0.48940384  0.18641108  0.49329570     0.21200
C191        C  0.49224115  0.16428661  0.02507658     0.03400
C192        C  0.45161252  0.11892363  0.03744896    -0.21900
C193        C  0.40847317  0.09668275  0.01636653     0.12600
S194        S  0.35175001  0.08478061  0.46183438    -0.05600
C195        C  0.32950506  0.04183572  0.49715764    -0.09100
C196        C  0.36468166  0.05316037  0.02403878    -0.25700
S197        S  0.54814363  0.19706294  0.04636377    -0.02900
C198        C  0.56728103  0.24169292  0.51263782    -0.16300
C199        C  0.53211524  0.23105809  0.48622865    -0.14300
H200        H  0.44489416  0.18058111  0.44677976     0.21000
H201        H  0.45348273  0.10183646  0.06246989     0.17100
H202        H  0.35835265  0.03046063  0.04796866     0.19600
H203        H  0.53792346  0.25433903  0.46273647     0.12900
C204        C  0.67574308  0.56965500  0.51607943     0.16800
C205        C  0.65389388  0.51994152  0.52750207    -0.32200
C206        C  0.67113592  0.49145216  0.51183383     0.21200
C207        C  0.70923179  0.51189736  0.48657426     0.03400
C208        C  0.73071381  0.56146818  0.47493876    -0.21900
C209        C  0.71257924  0.58954544  0.48995166     0.12600
S210        S  0.66099007  0.61069331  0.53226951    -0.05600
C211        C  0.70203071  0.65455443  0.50128742    -0.09100
C212        C  0.72811961  0.63801726  0.98163107    -0.25700
S213        S  0.72642678  0.47189105  0.97204393    -0.02900
C214        C  0.68104712  0.42662155  0.49969207    -0.16300
C215        C  0.65443826  0.44239426  0.51917904    -0.14300
H216        H  0.62472580  0.50415968  0.54769221     0.21000
H217        H  0.76011676  0.57738124  0.95493640     0.17100
H218        H  0.75792238  0.66037729  0.96279400     0.19600
H219        H  0.62525708  0.41950921  0.53837590     0.12900
C220        C  0.89877100  0.32535238  0.48672114     0.16800
C221        C  0.86950019  0.34481004  0.47640301    -0.32200
C222        C  0.82512388  0.32816200  0.49542178     0.21200
C223        C  0.81037700  0.29346988  0.52330973     0.03400
C224        C  0.84022723  0.27488326  0.53411143    -0.21900
C225        C  0.88476704  0.29179069  0.51522432     0.12600
S226        S  0.95273140  0.33913782  0.46618375    -0.05600
C227        C  0.95731774  0.29943450  0.49658060    -0.09100
C228        C  0.91837149  0.27758564  0.52148890    -0.25700
S229        S  0.75401466  0.27603128  0.54169225    -0.02900
C230        C  0.75058039  0.31659662  0.51189065    -0.16300
C231        C  0.79125152  0.34199119  0.48901349    -0.14300
H232        H  0.88052547  0.37129642  0.45423789     0.21000
H233        H  0.82893340  0.24793624  0.55598981     0.17100
H234        H  0.91393410  0.25219930  0.04306226     0.19600
H235        H  0.79523184  0.36825699  0.46817429     0.12900
C236        C  0.70730829  0.32274622  0.51041091     0.04000
C237        C  0.65909625  0.28124813  0.51425411    -0.12100
C238        C  0.61772488  0.28633734  0.01126407     0.01500
C239        C  0.62487480  0.33389786  0.00609656    -0.10700
C240        C  0.67301921  0.37607904  0.00340896     0.04000
C241        C  0.71393620  0.36997117  0.50477815    -0.10100
H242        H  0.65361518  0.24458297  0.51802716     0.09600
H243        H  0.59299716  0.33801104  0.00418740     0.07100
H244        H  0.75112932  0.40223569  0.50271129     0.07000
C245        C  0.33857101  0.71870073  0.99470018     0.04000
C246        C  0.38376184  0.72194599  0.98735540    -0.12100
C247        C  0.38671787  0.67892482  0.98690827     0.01500
C248        C  0.34299030  0.63246740  0.99243846    -0.10700
C249        C  0.29749679  0.62863881  0.99910237     0.04000
C250        C  0.29574962  0.67196360  0.00107710    -0.10100
H251        H  0.41640310  0.75811358  0.98222627     0.09600
H252        H  0.34403506  0.59875093  0.99223179     0.07100
H253        H  0.26056167  0.66916501  0.00571625     0.07000
C254        C  0.71170596  0.70764760  0.99966072    -0.01600
C255        C  0.00114199  0.29121667  0.99526940    -0.01600
C256        C  0.27752900  0.99423402  0.99808798    -0.01600
O257        O  0.92508472  0.96727725  0.79706407    -0.84500
O258        O  0.96579340  0.06520032  0.77658182    -0.81500
C259        C  0.00197777  0.08511145  0.79803895     0.99000
O260        O  0.03782631  0.07910490  0.79373907    -0.81600
O261        O  0.09103408  0.03737885  0.77713264    -0.84200
C262        C  0.07614655  0.99889649  0.79669937     1.03500
O263        O  0.03495652  0.95977695  0.79112039    -0.77000
O264        O  0.93473876  0.90752459  0.77722430    -0.77200
C265        C  0.91853843  0.92452062  0.80062470     1.03500
O266        O  0.89957985  0.93680525  0.72322556    -0.84500
O267        O  0.95299084  0.03521545  0.70256271    -0.81500
C268        C  0.99012870  0.07801777  0.69665970     0.99000
O269        O  0.02761995  0.09601464  0.71728984    -0.81600
O270        O  0.07687987  0.04807193  0.70177879    -0.84200
C271        C  0.08044139  0.01079003  0.69627941     1.03500
O272        O  0.05657951  0.97158893  0.71528279    -0.77000
O273        O  0.95716140  0.92594989  0.70103016    -0.77100
C274        C  0.91358361  0.91741772  0.70015772     1.03400
Cr275      Cr  0.94027517  0.00117991  0.74969840     1.93700
Cr276      Cr  0.05376911  0.06064840  0.74742978     1.93200
Cr277      Cr  0.99597049  0.94573140  0.74619726     1.39100
O278        O  0.99707047  0.00259751  0.74749730    -1.22200
C279        C  0.18003454  0.97480484  0.57145988     0.16800
C280        C  0.13792344  0.95571760  0.59349123    -0.32200
C281        C  0.13871427  0.98584466  0.62114821     0.21200
C282        C  0.17923225  0.03331709  0.62624849     0.03400
C283        C  0.22187535  0.05197333  0.60462326    -0.21900
C284        C  0.22141932  0.02132987  0.57731071     0.12600
S285        S  0.18523591  0.94470263  0.53573996    -0.05600
C286        C  0.24565868  0.99386232  0.52948285    -0.09100
C287        C  0.25916342  0.03256797  0.55345495    -0.25700
S288        S  0.17143083  0.06500937  0.66000362    -0.02900
C289        C  0.11363877  0.01315263  0.66776218    -0.16300
C290        C  0.10128044  0.97374190  0.64530333    -0.14300
H291        H  0.10580669  0.91909608  0.58910450     0.21000
H292        H  0.25382762  0.08876619  0.60877517     0.17100
H293        H  0.29420772  0.06754198  0.55328945     0.19600
H294        H  0.06637580  0.93851952  0.64618803     0.12900
C295        C  0.19543603  0.96737664  0.91157760     0.16800
C296        C  0.16396739  0.94711239  0.88165837    -0.32200
C297        C  0.14651046  0.97558032  0.86526766     0.21200
C298        C  0.16066928  0.02241555  0.87772675     0.03400
C299        C  0.19113795  0.04203763  0.90793486    -0.21900
C300        C  0.20771957  0.01329927  0.92461991     0.12600
S301        S  0.22083106  0.93940106  0.93557740    -0.05600
C302        C  0.24819641  0.99020222  0.96385847    -0.09100
C303        C  0.23662885  0.02590666  0.95472161    -0.25700
S304        S  0.13779809  0.05234698  0.85352621    -0.02900
C305        C  0.10747403  0.00080227  0.82680297    -0.16300
C306        C  0.11511421  0.96254720  0.83622766    -0.14300
H307        H  0.15348434  0.91082497  0.87168184     0.21000
H308        H  0.20149225  0.07824111  0.91803742     0.17100
H309        H  0.24872280  0.05955023  0.96971324     0.19600
H310        H  0.09927163  0.92761989  0.82223572     0.12900
C311        C  0.97417889  0.20895029  0.90936802     0.16800
C312        C  0.95531370  0.18042591  0.87805502    -0.32200
C313        C  0.98113079  0.15907695  0.86399396     0.21200
C314        C  0.02374280  0.16608979  0.88042257     0.03400
C315        C  0.04223272  0.19419795  0.91169572    -0.21900
C316        C  0.01646668  0.21530474  0.92571078     0.12600
S317        S  0.94884383  0.23806510  0.93093570    -0.05600
C318        C  0.99632650  0.25988209  0.96230424    -0.09100
C319        C  0.02887961  0.24359133  0.95598168    -0.25700
S320        S  0.05035338  0.13806070  0.85945781    -0.02900
C321        C  0.00359664  0.11610985  0.82804979    -0.16300
C322        C  0.96914402  0.13007092  0.83383048    -0.14300
H323        H  0.92211696  0.17515704  0.86525536     0.21000
H324        H  0.07540919  0.19946634  0.92454558     0.17100
H325        H  0.06021959  0.25208418  0.97293678     0.19600
H326        H  0.93737297  0.11981315  0.81686751     0.12900
C327        C  0.96994574  0.13744668  0.61239438     0.16800
C328        C  0.95205793  0.14765774  0.58086247    -0.32200
C329        C  0.97955406  0.19587323  0.56616290     0.21200
C330        C  0.02301030  0.23215626  0.58200048     0.03400
C331        C  0.04119344  0.22188467  0.61336715    -0.21900
C332        C  0.01358653  0.17372374  0.62820317     0.12600
S333        S  0.94142721  0.08159721  0.63471852    -0.05600
C334        C  0.98883452  0.10719493  0.66572901    -0.09100
C335        C  0.02478063  0.15653456  0.65879353    -0.25700
S336        S  0.05082169  0.28812909  0.55998748    -0.02900
C337        C  0.00293972  0.26303540  0.52892770    -0.16300
C338        C  0.96806955  0.21305853  0.53578706    -0.14300
H339        H  0.91802978  0.11934447  0.56846652     0.21000
H340        H  0.07521970  0.25023741  0.62574057     0.17100
H341        H  0.05712843  0.17867695  0.67532695     0.19600
H342        H  0.93604736  0.19041007  0.51908520     0.12900
C343        C  0.77598164  0.76884549  0.90732650     0.16800
C344        C  0.79116862  0.77979182  0.87114112    -0.32200
C345        C  0.83223984  0.82710649  0.86309337     0.21200
C346        C  0.85629729  0.86219828  0.88973402     0.03400
C347        C  0.84148002  0.85097845  0.92579337    -0.21900
C348        C  0.80121306  0.80348242  0.93387268     0.12600
S349        S  0.72653024  0.71430474  0.92299917    -0.05600
C350        C  0.74242869  0.73691278  0.96643510    -0.09100
C351        C  0.78198029  0.78592903  0.96740631    -0.25700
S352        S  0.90324293  0.91845503  0.87453079    -0.02900
C353        C  0.89110282  0.89417474  0.83195524    -0.16300
C354        C  0.85275301  0.84513673  0.82970799    -0.14300
H355        H  0.77181864  0.75277796  0.85023630     0.21000
H356        H  0.86047613  0.87814810  0.94667763     0.17100
H357        H  0.79579456  0.80840235  0.99131179     0.19600
H358        H  0.83973720  0.82448748  0.80491414     0.12900
C359        C  0.80595598  0.77493260  0.57760772     0.18000
C360        C  0.84965252  0.80072206  0.59768939    -0.32200
C361        C  0.85046193  0.82986160  0.62618285     0.21200
C362        C  0.80923038  0.83241928  0.63481381     0.03400
C363        C  0.76527241  0.80613632  0.61488093    -0.21900
C364        C  0.76484658  0.77779514  0.58581574     0.12600
S365        S  0.79896235  0.74038664  0.54075520    -0.05600
C366        C  0.74082948  0.73219609  0.53425012    -0.09100
C367        C  0.72690947  0.75233071  0.56171866    -0.25700
S368        S  0.81815819  0.87050500  0.67011577    -0.02900
C369        C  0.87823199  0.88345607  0.67304519    -0.16300
C370        C  0.89012796  0.85904882  0.64794913    -0.14300
H371        H  0.88203500  0.79908292  0.59084330     0.21000
H372        H  0.73326668  0.80869960  0.62116668     0.17100
H373        H  0.69168242  0.74995451  0.56382722     0.19600
H374        H  0.92599031  0.86261963  0.64564265     0.12900
C375        C  0.12860726  0.41582681  0.98106972     0.16800
C376        C  0.17601364  0.45345766  0.97010569    -0.32200
C377        C  0.19734191  0.49883518  0.98792653     0.21200
C378        C  0.17256126  0.50676169  0.01529343     0.03400
C379        C  0.12538128  0.46861267  0.02678198    -0.21900
C380        C  0.10418978  0.42291804  0.00908605     0.12600
S381        S  0.09609326  0.35888615  0.96197361    -0.05600
C382        C  0.04892763  0.34275235  0.99288971    -0.09100
C383        C  0.05884761  0.38121243  0.01620340    -0.25700
S384        S  0.20421956  0.56563214  0.53204170    -0.02900
C385        C  0.25164548  0.57916626  0.00224996    -0.16300
C386        C  0.24273635  0.53992463  0.98058282    -0.14300
H387        H  0.19528563  0.44775760  0.94838172     0.21000
H388        H  0.10592005  0.47439357  0.04831052     0.17100
H389        H  0.03392785  0.37857164  0.53730576     0.19600
H390        H  0.26770691  0.54173335  0.95983452     0.12900
C391        C  0.28895585  0.87796576  0.01726326     0.16800
C392        C  0.28426819  0.83384382  0.03027890    -0.32200
C393        C  0.30864462  0.81473771  0.01116408     0.21200
C394        C  0.33736356  0.83903457  0.98093256     0.03400
C395        C  0.34163216  0.88300305  0.96773904    -0.21900
C396        C  0.31620734  0.90147767  0.98640022     0.12600
S397        S  0.26221759  0.90685284  0.03658819    -0.05600
C398        C  0.28544823  0.95026385  0.00157769    -0.09100
C399        C  0.31432182  0.94272659  0.97724179    -0.25700
S400        S  0.36439721  0.80993923  0.96185479    -0.02900
C401        C  0.33551436  0.76383617  0.99438329    -0.16300
C402        C  0.30714599  0.77143386  0.01887534    -0.14300
H403        H  0.26217788  0.81497635  0.05404282     0.21000
H404        H  0.36328854  0.90162611  0.94376748     0.17100
H405        H  0.33284310  0.96634582  0.45394356     0.19600
H406        H  0.28636459  0.74645991  0.04105782     0.12900
C407        C  0.50033724  0.66486451  0.97675913     0.16800
C408        C  0.53191977  0.64622395  0.97592216    -0.32200
C409        C  0.58218182  0.67925089  0.98319452     0.21200
C410        C  0.60062420  0.72902527  0.98938601     0.03400
C411        C  0.56913445  0.74794815  0.98958368    -0.21900
C412        C  0.51840124  0.71441773  0.98380206     0.12600
S413        S  0.43768200  0.62958395  0.97251914    -0.05600
C414        C  0.43483773  0.68165542  0.98158196    -0.09100
C415        C  0.48117777  0.72441716  0.98639360    -0.25700
S416        S  0.66270008  0.76259984  0.49771660    -0.02900
C417        C  0.66348748  0.70806299  0.99593601    -0.16300
C418        C  0.61782509  0.66721914  0.98615913    -0.14300
H419        H  0.51757634  0.60720240  0.97133493     0.21000
H420        H  0.58325526  0.78664512  0.99529840     0.17100
H421        H  0.48760482  0.76048495  0.49338603     0.19600
H422        H  0.61061959  0.63043676  0.98082572     0.12900
C423        C  0.40643126  0.11811986  0.98408019     0.16800
C424        C  0.44675483  0.16359203  0.97186987    -0.32200
C425        C  0.48939122  0.18639787  0.99330446     0.21200
C426        C  0.49224820  0.16431169  0.52507600     0.03400
C427        C  0.45161669  0.11895491  0.53745389    -0.21900
C428        C  0.40848018  0.09670714  0.51636860     0.12600
S429        S  0.35173746  0.08477491  0.96184036    -0.05600
C430        C  0.32949537  0.04181851  0.99715618    -0.09100
C431        C  0.36468847  0.05318675  0.52404392    -0.25700
S432        S  0.54814843  0.19709275  0.54636537    -0.02900
C433        C  0.56726858  0.24167776  0.01264736    -0.16300
C434        C  0.53209900  0.23105007  0.98624279    -0.14300
H435        H  0.44487589  0.18058312  0.94679636     0.21000
H436        H  0.45348313  0.10187673  0.56248065     0.17100
H437        H  0.35835734  0.03049465  0.54797857     0.19600
H438        H  0.53790232  0.25433956  0.96275687     0.12900
C439        C  0.67573684  0.56964903  0.01608078     0.16800
C440        C  0.65388856  0.51993685  0.02750673    -0.32200
C441        C  0.67112337  0.49144289  0.01183569     0.21200
C442        C  0.70921117  0.51188242  0.98656969     0.03400
C443        C  0.73069121  0.56145162  0.97493008    -0.21900
C444        C  0.71256418  0.58953369  0.98994641     0.12600
S445        S  0.66099396  0.61069278  0.03227527    -0.05600
C446        C  0.70202750  0.65454918  0.00128763    -0.09100
C447        C  0.72813380  0.63802893  0.48163788    -0.25700
S448        S  0.72645290  0.47190998  0.47204948    -0.02900
C449        C  0.68102945  0.42660856  0.99969495    -0.16300
C450        C  0.65442702  0.44238599  0.01918501    -0.14300
H451        H  0.62472754  0.50415985  0.04770222     0.21000
H452        H  0.76014552  0.57740219  0.45494987     0.17100
H453        H  0.75794318  0.66039342  0.46280665     0.19600
H454        H  0.62525209  0.41950530  0.03838717     0.12900
C455        C  0.89875833  0.32534648  0.98672007     0.16800
C456        C  0.86948582  0.34480249  0.97640256    -0.32200
C457        C  0.82511034  0.32815397  0.99542268     0.21200
C458        C  0.81036588  0.29346287  0.02331113     0.03400
C459        C  0.84021769  0.27487797  0.03411210    -0.21900
C460        C  0.88475660  0.29178593  0.01522379     0.12600
S461        S  0.95271854  0.33913297  0.96618171    -0.05600
C462        C  0.95730735  0.29943130  0.99657878    -0.09100
C463        C  0.91836232  0.27758265  0.02148798    -0.25700
S464        S  0.75400483  0.27602389  0.04169593    -0.02900
C465        C  0.75056782  0.31658801  0.01189480    -0.16300
C466        C  0.79123698  0.34198224  0.98901587    -0.14300
H467        H  0.88050934  0.37128825  0.95423719     0.21000
H468        H  0.82892587  0.24793208  0.05599110     0.17100
H469        H  0.91394161  0.25220073  0.54306250     0.19600
H470        H  0.79521534  0.36824730  0.96817675     0.12900
loop_ 
_geom_bond_atom_site_label_1 
_geom_bond_atom_site_label_2 
_geom_bond_distance 
_geom_bond_site_symmetry_2 
_ccdc_geom_bond_type 
C1            C2   1.404       .  A
C1            C6   1.405       .  A
C1          C465   1.480       .  S
C2          C238   1.403       .  A
C2            H7   1.084       .  S
C3            C4   1.406       .  A
C3          C237   1.403       .  A
C3          C198   1.478       .  S
C4            C5   1.407       .  A
C4            H8   1.084       .  S
C5          C241   1.405       .  A
C5          C214   1.482       .  S
C6          C240   1.405       .  A
C6            H9   1.083       .  S
C10          C11   1.406       .  A
C10          C15   1.404       .  A
C10         C166   1.477       .  S
C11          C12   1.409       .  A
C11          H16   1.081       .  S
C12          C13   1.407       .  A
C12         C179   1.492       .  S
C13          C14   1.402       .  A
C13          H17   1.082       .  S
C14          C15   1.400       .  A
C14         C150   1.478       .  S
C15          H18   1.083       .  S
C19         C115   1.533       .  S
C19         C182   1.538       .  S
C19         C211   1.538       .  S
C19         C366   1.539       .  S
C20          C83   1.539   1_455  S
C20         C147   1.538       .  S
C20         C227   1.539   1_455  S
C20         C337   1.540       .  S
C21          C67   1.537       .  S
C21         C163   1.537       .  S
C21         C195   1.542   1_565  S
C21         C286   1.537       .  S
O22         Cr40   1.968   1_565  S
O22          C30   1.259       .  A
O23         Cr40   2.019       .  S
O23          C24   1.263   1_655  A
C24          C86   1.475       .  S
C24          O25   1.254       .  A
O25         Cr41   1.969       .  S
O26         Cr41   2.004       .  S
O26          C27   1.266   1_545  A
C27          C70   1.471   1_565  S
C27          O28   1.261       .  A
O28         Cr42   1.982   1_455  S
O29         Cr42   2.015       .  S
O29          C30   1.267       .  A
C30         C118   1.458       .  S
O31         Cr40   2.016   1_565  S
O31          C39   1.265       .  A
O32         Cr40   1.967       .  S
O32          C33   1.260       .  A
C33          C99   1.474       .  S
C33          O34   1.272   1_655  A
O34         Cr41   2.025       .  S
O35         Cr41   1.970       .  S
O35          C36   1.258       .  A
C36          C54   1.465       .  S
C36          O37   1.265   1_545  A
O37         Cr42   2.001   1_455  S
O38         Cr42   1.979       .  S
O38          C39   1.259       .  A
C39         C134   1.477       .  S
Cr40         O43   1.775       .  S
Cr41         O43   1.772   1_455  S
Cr42         O43   1.778   1_565  S
C44          C49   1.384   1_565  A
C44          C45   1.399       .  A
C44          S50   1.698       .  A
C45          C46   1.399       .  A
C45          H56   1.083       .  S
C46          C55   1.369       .  A
C46          C47   1.387   1_565  A
C47          C48   1.404       .  A
C47          S53   1.709       .  A
C48          C49   1.405       .  A
C48          H57   1.083       .  S
C49          C52   1.374       .  A
S50          C51   1.735       .  A
C51          C52   1.395   1_565  A
C51         C256   1.537   1_554  S
C52          H58   1.081       .  S
S53          C54   1.723       .  A
C54          C55   1.383   1_545  A
C55          H59   1.083       .  S
C60          C65   1.384   1_565  A
C60          C61   1.407       .  A
C60          S66   1.712       .  A
C61          C62   1.408       .  A
C61          H72   1.083       .  S
C62          C71   1.376       .  A
C62          C63   1.387   1_565  A
C63          C64   1.399       .  A
C63          S69   1.705       .  A
C64          C65   1.400       .  A
C64          H73   1.083       .  S
C65          C68   1.366       .  A
S66          C67   1.735       .  A
C67          C68   1.392   1_565  A
C68          H74   1.083       .  S
S69          C70   1.720       .  A
C70          C71   1.389   1_545  A
C71          H75   1.083       .  S
C76          C81   1.384   1_655  A
C76          C77   1.406       .  A
C76          S82   1.708       .  A
C77          C78   1.407       .  A
C77          H88   1.083       .  S
C78          C87   1.377       .  A
C78          C79   1.387   1_655  A
C79          C80   1.398       .  A
C79          S85   1.701       .  A
C80          C81   1.399       .  A
C80          H89   1.083       .  S
C81          C84   1.367       .  A
S82          C83   1.736       .  A
C83          C84   1.392   1_655  A
C84          H90   1.083       .  S
S85          C86   1.722       .  A
C86          C87   1.390   1_455  A
C87          H91   1.083       .  S
C92          C97   1.387   1_655  A
C92          C93   1.402       .  A
C92          S98   1.705       .  A
C93          C94   1.402       .  A
C93         H104   1.083       .  S
C94         C103   1.371       .  A
C94          C95   1.384   1_655  A
C95          C96   1.403       .  A
C95         S101   1.703       .  A
C96          C97   1.403       .  A
C96         H105   1.083       .  S
C97         C100   1.373       .  A
S98          C99   1.724       .  A
C99         C100   1.387   1_655  A
C100        H106   1.083       .  S
S101        C102   1.735       .  A
C102        C103   1.394   1_455  A
C102        C255   1.540   1_554  S
C103        H107   1.083       .  S
C108        C113   1.384       .  A
C108        C109   1.402       .  A
C108        S114   1.706       .  A
C109        C110   1.404       .  A
C109        H120   1.083       .  S
C110        C119   1.369       .  A
C110        C111   1.388       .  A
C111        C112   1.396       .  A
C111        S117   1.702       .  A
C112        C113   1.398       .  A
C112        H121   1.083       .  S
C113        C116   1.362       .  A
S114        C115   1.734       .  A
C115        C116   1.393       .  A
C116        H122   1.082       .  S
S117        C118   1.717       .  A
C118        C119   1.384       .  A
C119        H123   1.083       .  S
C124        C129   1.384       .  A
C124        C125   1.401       .  A
C124        S130   1.700       .  A
C125        C126   1.401       .  A
C125        H136   1.083       .  S
C126        C135   1.372       .  A
C126        C127   1.386       .  A
C127        C128   1.405       .  A
C127        S133   1.710       .  A
C128        C129   1.405       .  A
C128        H137   1.083       .  S
C129        C132   1.375       .  A
S130        C131   1.734       .  A
C131        C132   1.395       .  A
C131        C254   1.539   1_554  S
C132        H138   1.080       .  S
S133        C134   1.726       .  A
C134        C135   1.387       .  A
C135        H139   1.083       .  S
C140        C145   1.384       .  A
C140        C141   1.398       .  A
C140        S146   1.700       .  A
C141        C142   1.399       .  A
C141        H152   1.083       .  S
C142        C151   1.366       .  A
C142        C143   1.386       .  A
C143        C144   1.404       .  A
C143        S384   1.710       .  A
C144        C145   1.405       .  A
C144        H153   1.083       .  S
C145        C148   1.371       .  A
S146        C147   1.731       .  A
C147        C148   1.396       .  A
C148        H389   1.083       .  S
S149        C378   1.710       .  A
S149        C385   1.726       .  A
C150        C151   1.386       .  A
C150        S384   1.726       .  A
C151        H155   1.083       .  S
H154        C383   1.083       .  S
C156        C161   1.384       .  A
C156        C157   1.400       .  A
C156        S162   1.699       .  A
C157        C158   1.400       .  A
C157        H168   1.083       .  S
C158        C167   1.368       .  A
C158        C159   1.387       .  A
C159        C160   1.403       .  A
C159        S165   1.707       .  A
C160        C161   1.403       .  A
C160        H169   1.083       .  S
C161        C164   1.372       .  A
S162        C163   1.733       .  A
C163        C164   1.393       .  A
C164        H405   1.083       .  S
S165        C166   1.724       .  A
C166        C167   1.386       .  A
C167        H171   1.083       .  S
H170        C399   1.083       .  S
C172        C177   1.385       .  A
C172        C173   1.400       .  A
C172        S178   1.700       .  A
C173        C174   1.401       .  A
C173        H184   1.083       .  S
C174        C183   1.368       .  A
C174        C175   1.383       .  A
C175        C176   1.403       .  A
C175        S416   1.705       .  A
C176        C177   1.404       .  A
C176        H185   1.083       .  S
C177        C180   1.373       .  A
S178        C179   1.729       .  A
C179        C180   1.393       .  A
C180        H421   1.081       .  S
S181        C410   1.705       .  A
S181        C417   1.736       .  A
C182        C183   1.395       .  A
C182        S416   1.736       .  A
C183        H187   1.081       .  S
H186        C415   1.081       .  S
C188        C189   1.401       .  A
C188        C428   1.384       .  A
C188        S194   1.701       .  A
C189        C190   1.402       .  A
C189        H200   1.083       .  S
C190        C199   1.372       .  A
C190        C426   1.387       .  A
C191        C192   1.405       .  A
C191        C425   1.387   1_554  A
C191        S197   1.710       .  A
C192        C193   1.405       .  A
C192        H201   1.083       .  S
C193        C196   1.375       .  A
C193        C423   1.384   1_554  A
S194        C195   1.733       .  A
C195        C431   1.395       .  A
C196        C430   1.395   1_554  A
C196        H202   1.083       .  S
S197        C433   1.725       .  A
C198        C199   1.386       .  A
C198        S432   1.725       .  A
C199        H203   1.083       .  S
C204        C209   1.384       .  A
C204        C205   1.403       .  A
C204        S210   1.706       .  A
C205        C206   1.404       .  A
C205        H216   1.083       .  S
C206        C215   1.373       .  A
C206        C207   1.386       .  A
C207        C208   1.403       .  A
C207        S448   1.708       .  A
C208        C209   1.403       .  A
C208        H452   1.083       .  S
C209        C447   1.371       .  A
S210        C211   1.734       .  A
C211        C447   1.395       .  A
C212        C444   1.371       .  A
C212        C446   1.395   1_556  A
C212        H218   1.081       .  S
S213        C442   1.708       .  A
S213        C449   1.726       .  A
C214        C215   1.389       .  A
C214        S448   1.726       .  A
C215        H219   1.083       .  S
H217        C443   1.083       .  S
C220        C225   1.384       .  A
C220        C221   1.402       .  A
C220        S226   1.704       .  A
C221        C222   1.403       .  A
C221        H232   1.083       .  S
C222        C231   1.371       .  A
C222        C223   1.386       .  A
C223        C224   1.402       .  A
C223        S229   1.708       .  A
C224        C225   1.403       .  A
C224        H233   1.083       .  S
C225        C228   1.370       .  A
S226        C227   1.735       .  A
C227        C228   1.395       .  A
C228        H469   1.080       .  S
S229        C230   1.725       .  A
C230        C231   1.388       .  A
C230        C236   1.480       .  S
C231        H235   1.083       .  S
H234        C463   1.080       .  S
C236        C237   1.404       .  A
C236        C241   1.405       .  A
C237        H242   1.084       .  S
C238        C239   1.406       .  A
C238        C433   1.478       .  S
C239        C240   1.407       .  A
C239        H243   1.084       .  S
C240        C449   1.482   1_554  S
C241        H244   1.083       .  S
C245        C246   1.406       .  A
C245        C250   1.404   1_556  A
C245        C401   1.477       .  S
C246        C247   1.409       .  A
C246        H251   1.081       .  S
C247        C248   1.407       .  A
C247        C414   1.492       .  S
C248        C249   1.402       .  A
C248        H252   1.082       .  S
C249        C250   1.400   1_556  A
C249        C385   1.478   1_556  S
C250        H253   1.083       .  S
C254        C350   1.533       .  S
C254        C417   1.538       .  S
C254        C446   1.538   1_556  S
C255        C318   1.539   1_455  S
C255        C382   1.538       .  S
C255        C462   1.539   1_455  S
C256        C302   1.537       .  S
C256        C398   1.537   1_556  S
C256        C430   1.542   1_565  S
O257       Cr275   1.968   1_565  S
O257        C265   1.259       .  A
O258       Cr275   2.019       .  S
O258        C259   1.263   1_655  A
C259        C321   1.475       .  S
C259        O260   1.254       .  A
O260       Cr276   1.969       .  S
O261       Cr276   2.003       .  S
O261        C262   1.266   1_545  A
C262        C305   1.471   1_565  S
C262        O263   1.261       .  A
O263       Cr277   1.982   1_455  S
O264       Cr277   2.015       .  S
O264        C265   1.267       .  A
C265        C353   1.458       .  S
O266       Cr275   2.016   1_565  S
O266        C274   1.265       .  A
O267       Cr275   1.967       .  S
O267        C268   1.260       .  A
C268        C334   1.474       .  S
C268        O269   1.272   1_655  A
O269       Cr276   2.025       .  S
O270       Cr276   1.970       .  S
O270        C271   1.258       .  A
C271        C289   1.465       .  S
C271        O272   1.265   1_545  A
O272       Cr277   2.001   1_455  S
O273       Cr277   1.979       .  S
O273        C274   1.259       .  A
C274        C369   1.477       .  S
Cr275       O278   1.775       .  S
Cr276       O278   1.772   1_455  S
Cr277       O278   1.778   1_565  S
C279        C284   1.384   1_565  A
C279        C280   1.399       .  A
C279        S285   1.698       .  A
C280        C281   1.399       .  A
C280        H291   1.083       .  S
C281        C290   1.369       .  A
C281        C282   1.387   1_565  A
C282        C283   1.404       .  A
C282        S288   1.709       .  A
C283        C284   1.405       .  A
C283        H292   1.083       .  S
C284        C287   1.374       .  A
S285        C286   1.735       .  A
C286        C287   1.395   1_565  A
C287        H293   1.081       .  S
S288        C289   1.723       .  A
C289        C290   1.383   1_545  A
C290        H294   1.083       .  S
C295        C300   1.384   1_565  A
C295        C296   1.407       .  A
C295        S301   1.712       .  A
C296        C297   1.408       .  A
C296        H307   1.083       .  S
C297        C306   1.376       .  A
C297        C298   1.387   1_565  A
C298        C299   1.399       .  A
C298        S304   1.705       .  A
C299        C300   1.400       .  A
C299        H308   1.083       .  S
C300        C303   1.366       .  A
S301        C302   1.735       .  A
C302        C303   1.392   1_565  A
C303        H309   1.083       .  S
S304        C305   1.720       .  A
C305        C306   1.389   1_545  A
C306        H310   1.083       .  S
C311        C316   1.384   1_655  A
C311        C312   1.406       .  A
C311        S317   1.708       .  A
C312        C313   1.407       .  A
C312        H323   1.083       .  S
C313        C322   1.377       .  A
C313        C314   1.387   1_655  A
C314        C315   1.398       .  A
C314        S320   1.701       .  A
C315        C316   1.399       .  A
C315        H324   1.083       .  S
C316        C319   1.367       .  A
S317        C318   1.736       .  A
C318        C319   1.392   1_655  A
C319        H325   1.083       .  S
S320        C321   1.722       .  A
C321        C322   1.390   1_455  A
C322        H326   1.083       .  S
C327        C332   1.387   1_655  A
C327        C328   1.402       .  A
C327        S333   1.705       .  A
C328        C329   1.402       .  A
C328        H339   1.083       .  S
C329        C338   1.371       .  A
C329        C330   1.384   1_655  A
C330        C331   1.403       .  A
C330        S336   1.703       .  A
C331        C332   1.403       .  A
C331        H340   1.083       .  S
C332        C335   1.373       .  A
S333        C334   1.724       .  A
C334        C335   1.387   1_655  A
C335        H341   1.083       .  S
S336        C337   1.735       .  A
C337        C338   1.394   1_455  A
C338        H342   1.083       .  S
C343        C348   1.384       .  A
C343        C344   1.402       .  A
C343        S349   1.706       .  A
C344        C345   1.404       .  A
C344        H355   1.083       .  S
C345        C354   1.369       .  A
C345        C346   1.388       .  A
C346        C347   1.396       .  A
C346        S352   1.702       .  A
C347        C348   1.398       .  A
C347        H356   1.083       .  S
C348        C351   1.362       .  A
S349        C350   1.734       .  A
C350        C351   1.393       .  A
C351        H357   1.082       .  S
S352        C353   1.717       .  A
C353        C354   1.384       .  A
C354        H358   1.083       .  S
C359        C364   1.384       .  A
C359        C360   1.401       .  A
C359        S365   1.700       .  A
C360        C361   1.401       .  A
C360        H371   1.083       .  S
C361        C370   1.372       .  A
C361        C362   1.386       .  A
C362        C363   1.405       .  A
C362        S368   1.710       .  A
C363        C364   1.405       .  A
C363        H372   1.083       .  S
C364        C367   1.375       .  A
S365        C366   1.734       .  A
C366        C367   1.395       .  A
C367        H373   1.080       .  S
S368        C369   1.726       .  A
C369        C370   1.387       .  A
C370        H374   1.083       .  S
C375        C380   1.384   1_556  A
C375        C376   1.398       .  A
C375        S381   1.700       .  A
C376        C377   1.399       .  A
C376        H387   1.083       .  S
C377        C386   1.366       .  A
C377        C378   1.386   1_556  A
C378        C379   1.404       .  A
C379        C380   1.405       .  A
C379        H388   1.083       .  S
C380        C383   1.371       .  A
S381        C382   1.731       .  A
C382        C383   1.396   1_556  A
C385        C386   1.386   1_554  A
C386        H390   1.083       .  S
C391        C396   1.384   1_554  A
C391        C392   1.400       .  A
C391        S397   1.699       .  A
C392        C393   1.400       .  A
C392        H403   1.083       .  S
C393        C402   1.368       .  A
C393        C394   1.387   1_554  A
C394        C395   1.403       .  A
C394        S400   1.707       .  A
C395        C396   1.403       .  A
C395        H404   1.083       .  S
C396        C399   1.372       .  A
S397        C398   1.733       .  A
C398        C399   1.393   1_554  A
S400        C401   1.724       .  A
C401        C402   1.386   1_556  A
C402        H406   1.083       .  S
C407        C412   1.385       .  A
C407        C408   1.400       .  A
C407        S413   1.700       .  A
C408        C409   1.401       .  A
C408        H419   1.083       .  S
C409        C418   1.368       .  A
C409        C410   1.383       .  A
C410        C411   1.403       .  A
C411        C412   1.404       .  A
C411        H420   1.083       .  S
C412        C415   1.373       .  A
S413        C414   1.729       .  A
C414        C415   1.393       .  A
C417        C418   1.395       .  A
C418        H422   1.081       .  S
C423        C424   1.401       .  A
C423        S429   1.701       .  A
C424        C425   1.402       .  A
C424        H435   1.083       .  S
C425        C434   1.372       .  A
C426        C427   1.405       .  A
C426        S432   1.710       .  A
C427        C428   1.405       .  A
C427        H436   1.083       .  S
C428        C431   1.375       .  A
S429        C430   1.733       .  A
C431        H437   1.083       .  S
C433        C434   1.386   1_554  A
C434        H438   1.083       .  S
C439        C444   1.384   1_554  A
C439        C440   1.403       .  A
C439        S445   1.706       .  A
C440        C441   1.404       .  A
C440        H451   1.083       .  S
C441        C450   1.373       .  A
C441        C442   1.386   1_554  A
C442        C443   1.403       .  A
C443        C444   1.403       .  A
S445        C446   1.734       .  A
C447        H453   1.081       .  S
C449        C450   1.389   1_556  A
C450        H454   1.083       .  S
C455        C460   1.384   1_556  A
C455        C456   1.402       .  A
C455        S461   1.704       .  A
C456        C457   1.403       .  A
C456        H467   1.083       .  S
C457        C466   1.371       .  A
C457        C458   1.386   1_556  A
C458        C459   1.402       .  A
C458        S464   1.708       .  A
C459        C460   1.403       .  A
C459        H468   1.083       .  S
C460        C463   1.370       .  A
S461        C462   1.735       .  A
C462        C463   1.395   1_556  A
S464        C465   1.725       .  A
C465        C466   1.388   1_554  A
C466        H470   1.083       .  S
