geometry optimzed in LAMMPS
_audit_creation_date              2020-11-30 
_audit_creation_method            'lammps2cif' 
_symmetry_space_group_name_H-M    'P1' 
_symmetry_Int_Tables_number       1 
_symmetry_cell_setting            triclinic 
loop_ 
_symmetry_equiv_pos_as_xyz 
  x,y,z 
_cell_length_a                    40.45364143 
_cell_length_b                    42.542781000101215 
_cell_length_c                    39.794381616811 
_cell_angle_alpha                 88.46370537256084 
_cell_angle_beta                  89.6177737799196 
_cell_angle_gamma                 118.71137065801587 
loop_ 
_atom_site_label 
_atom_site_type_symbol 
_atom_site_fract_x 
_atom_site_fract_y 
_atom_site_fract_z 
_atom_site_charge 
N1          N  0.16222107  0.03545655  0.06573240    -0.02500
C2          C  0.15567118  0.51122304  0.10194436     0.00100
C3          C  0.12044408  0.49349793  0.11817405    -0.22800
C4          C  0.09385788  0.48793354  0.09471054    -0.23000
C5          C  0.11258018  0.50451786  0.06508201     0.00000
H6          H  0.11378317  0.47906998  0.14221293     0.13700
H7          H  0.06375439  0.47085430  0.09824599     0.13800
N8          N  0.19273299  0.06730703  0.05051802    -0.02500
C9          C  0.18831810  0.08347148  0.02214109     0.00100
C10         C  0.22323169  0.10861397  0.00929553    -0.22800
C11         C  0.24942413  0.11087452  0.03129840    -0.23000
C12         C  0.23130943  0.08650553  0.05763121     0.00000
H13         H  0.22901278  0.12842610  0.98937445     0.13700
H14         H  0.27892218  0.13082514  0.02915675     0.13800
N15         N  0.43563987  0.02887897  0.08493880    -0.02500
C16         C  0.44994599  0.04498800  0.11425706     0.00100
C17         C  0.46897832  0.02948003  0.13022588    -0.22800
C18         C  0.46871758  0.00442531  0.10927071    -0.23000
C19         C  0.45003954  0.00503337  0.08053254     0.00000
H20         H  0.94941480  0.01441851  0.14295667     0.13700
H21         H  0.48510731  0.99064453  0.11264690     0.13800
N22         N  0.40455644  0.03009790  0.06835112    -0.02500
C23         C  0.38539587  0.00680447  0.04397876     0.00100
C24         C  0.36144028  0.01605220  0.02771984    -0.22800
C25         C  0.36314864  0.04452098  0.04374002    -0.23000
C26         C  0.38829223  0.05301211  0.06992241     0.00000
H27         H  0.34071812  0.00057963  0.00939437     0.13700
H28         H  0.34466884  0.05578123  0.03847916     0.13800
N29         N  0.41144271  0.27696357  0.05486675    -0.02500
C30         C  0.40872808  0.27621144  0.02093903     0.00100
C31         C  0.37233019  0.25288253  0.01221457    -0.22800
C32         C  0.35360498  0.23483790  0.04119567    -0.23000
C33         C  0.37890070  0.24709053  0.06717508     0.00000
H34         H  0.36268701  0.24431675  0.98715950     0.13700
H35         H  0.32730816  0.20990111  0.04171605     0.13800
N36         N  0.42963604  0.31158703  0.06980360    -0.02500
C37         C  0.42760223  0.31440647  0.10345350     0.00100
C38         C  0.46362037  0.33366009  0.11557494    -0.22800
C39         C  0.48721126  0.34892629  0.08799435    -0.23000
C40         C  0.46484621  0.33877674  0.05985109     0.00000
H41         H  0.47052693  0.34346593  0.14077333     0.13700
H42         H  0.51516464  0.37178282  0.08922522     0.13800
C43         C  0.14747651  0.31456071  0.04041540     0.03200
C44         C  0.13313865  0.27957142  0.03062123     0.03200
C45         C  0.15670376  0.26481974  0.02623225     0.03200
C46         C  0.19553057  0.28711585  0.02243803     0.03200
C47         C  0.21119320  0.32257400  0.03283660     0.03200
C48         C  0.18668587  0.33623805  0.04133153     0.03200
O49         O  0.41943434  0.14567285  0.19400185    -0.77500
C50         C  0.30044523  0.03624412  0.20496906     0.83500
O51         O  0.37449503  0.10081105  0.08161575    -0.78700
O52         O  0.24601406  0.07892522  0.11765845    -0.80100
O53         O  0.31595642  0.17932120  0.19096688    -0.79900
O54         O  0.40809802  0.19227464  0.18931356    -0.78600
Zn55       Zn  0.37218177  0.10288201  0.16649505     1.55700
O56         O  0.26790723  0.12307370  0.19219479    -0.80000
Cd57       Cd  0.35887634  0.17720262  0.16139546     1.59700
Cd58       Cd  0.34772477  0.13108442  0.09771154     1.59600
O59         O  0.37283381  0.21790383  0.12253521    -0.79900
O60         O  0.34033185  0.12473500  0.14783365    -1.90500
Cd61       Cd  0.28299039  0.09118882  0.16111796     1.59900
O62         O  0.37109861  0.18680401  0.07817079    -0.79900
O63         O  0.27550742  0.04301192  0.19118308    -0.78600
C64         C  0.38541803  0.07927024  0.09469653     0.84000
C65         C  0.42832636  0.17860838  0.20040460     0.83600
O66         O  0.33588482  0.05779465  0.19869392    -0.77500
C67         C  0.28268818  0.15595696  0.20101638     0.84400
O68         O  0.38717852  0.07701592  0.12693107    -0.77600
C69         C  0.37635350  0.21657868  0.09077175     0.84600
C70         C  0.25691683  0.08902098  0.08697318     0.84900
O71         O  0.29238423  0.10629745  0.07958609    -0.80000
N72         N  0.24101088  0.43875299  0.22366985    -0.02500
C73         C  0.23683437  0.43616720  0.18994548     0.00100
C74         C  0.19954860  0.41585612  0.18268883    -0.22800
C75         C  0.18072996  0.40035995  0.21237725    -0.23000
C76         C  0.20773179  0.41030046  0.23700032     0.00000
H77         H  0.18971901  0.40557964  0.15825442     0.13700
H78         H  0.15296264  0.37707070  0.21364366     0.13800
N79         N  0.25825348  0.47456095  0.23634965    -0.02500
C80         C  0.25694010  0.47821446  0.26992320     0.00100
C81         C  0.28308897  0.00601327  0.28686984    -0.22800
C82         C  0.30950283  0.01804347  0.26119269    -0.23000
C83         C  0.29018817  0.00528509  0.23176767     0.00000
H84         H  0.28727578  0.01920997  0.31057699     0.13700
H85         H  0.33671930  0.04166060  0.26282958     0.13800
N86         N  0.24690504  0.21362366  0.22258098    -0.02500
C87         C  0.23672536  0.20786985  0.19020016     0.00100
C88         C  0.24410941  0.24003690  0.17441335    -0.22800
C89         C  0.25477417  0.26496969  0.19886143    -0.23000
C90         C  0.25180055  0.24735835  0.22934495     0.00000
H91         H  0.23517421  0.24376724  0.14977056     0.13700
H92         H  0.25465260  0.29022072  0.19564338     0.13800
N93         N  0.26837541  0.19795068  0.23672397    -0.02500
C94         C  0.28111287  0.20489162  0.26826214     0.00100
C95         C  0.27904464  0.17468302  0.28332662    -0.22800
C96         C  0.26785022  0.14917615  0.25961775    -0.23000
C97         C  0.26441448  0.16460614  0.22985289     0.00000
H98         H  0.29533713  0.17518504  0.30485265     0.13700
H99         H  0.27305096  0.12650341  0.26151058     0.13800
N100        N  0.02840279  0.22209785  0.21459432    -0.02500
C101        C  0.03481581  0.23370662  0.18203568     0.00100
C102        C  0.06426848  0.23000386  0.16889489    -0.22800
C103        C  0.07891810  0.21951523  0.19523145    -0.23000
C104        C  0.05955110  0.21898161  0.22440378     0.00000
H105        H  0.07877298  0.24103611  0.14508249     0.13700
H106        H  0.10638251  0.22095750  0.19410882     0.13800
N107        N  0.48870300  0.19880863  0.23769399    -0.02500
C108        C  0.47776532  0.18617741  0.26984547     0.00100
C109        C  0.45252904  0.19700154  0.28141183    -0.22800
C110        C  0.44015932  0.20714281  0.25363048    -0.23000
C111        C  0.45745806  0.20116135  0.22641374     0.00000
H112        H  0.43671903  0.18906561  0.30495482     0.13700
H113        H  0.41423599  0.20849843  0.25326567     0.13800
C114        C  0.00248738  0.42237952  0.20977869     0.03200
C115        C  0.48294110  0.44737570  0.25660998     0.03200
C116        C  0.46080872  0.46419754  0.25833083     0.03200
C117        C  0.47776209  0.50048783  0.26456685     0.03200
C118        C  0.99744440  0.47402203  0.22792222     0.03200
C119        C  0.01943969  0.45783052  0.22034143     0.03200
N120        N  0.33227616  0.35948263  0.38839479    -0.02500
C121        C  0.34764491  0.34405051  0.40881876     0.00100
C122        C  0.32018801  0.31993969  0.43107618    -0.22800
C123        C  0.28629775  0.31467186  0.41929342    -0.23000
C124        C  0.29384103  0.33734655  0.39136548     0.00000
H125        H  0.32327781  0.30133490  0.44816397     0.13700
H126        H  0.25911549  0.29295246  0.42748644     0.13800
N127        N  0.34982515  0.39779329  0.38554323    -0.02500
C128        C  0.33545227  0.41686922  0.36882502     0.00100
C129        C  0.36281998  0.45233615  0.36468354    -0.22800
C130        C  0.39386023  0.45613471  0.38105605    -0.23000
C131        C  0.38606904  0.42295171  0.39411979     0.00000
H132        H  0.35888111  0.47434592  0.35516197     0.13700
H133        H  0.41846526  0.48142717  0.38597702     0.13800
N134        N  0.09837456  0.35651776  0.40863549    -0.02500
C135        C  0.11070618  0.37139033  0.43879521     0.00100
C136        C  0.13086949  0.35728132  0.45460608    -0.22800
C137        C  0.13246733  0.33362144  0.43356439    -0.23000
C138        C  0.11451431  0.33438875  0.40421368     0.00000
H139        H  0.14634739  0.36611169  0.47758869     0.13700
H140        H  0.14854377  0.31975407  0.43831636     0.13800
N141        N  0.06595111  0.35466631  0.39252509    -0.02500
C142        C  0.04610325  0.32823360  0.37077508     0.00100
C143        C  0.02124131  0.33591391  0.35377765    -0.22800
C144        C  0.02291969  0.36579397  0.36776302    -0.23000
C145        C  0.04857782  0.37634167  0.39370204     0.00000
H146        H  0.50394230  0.32465069  0.33598520     0.13700
H147        H  0.00315932  0.37558799  0.36257046     0.13800
N148        N  0.08554118  0.10500815  0.38386800    -0.02500
C149        C  0.09471361  0.10996338  0.35057047     0.00100
C150        C  0.06555366  0.08423297  0.33299203    -0.22800
C151        C  0.04350785  0.05753621  0.35593644    -0.23000
C152        C  0.05836771  0.06889475  0.38730239     0.00000
H153        H  0.06561543  0.08137249  0.30612184     0.13700
H154        H  0.02212614  0.03084142  0.34984741     0.13800
N155        N  0.08228341  0.13327830  0.39998332    -0.02500
C156        C  0.05471795  0.12687931  0.42313823     0.00100
C157        C  0.05963270  0.15793271  0.43680663    -0.22800
C158        C  0.09056686  0.18511013  0.42124248    -0.23000
C159        C  0.10361121  0.17066752  0.39686046     0.00000
H160        H  0.03975821  0.16103193  0.45279837     0.13700
H161        H  0.09916123  0.21322656  0.42421542     0.13800
C162        C  0.35463372  0.14415403  0.42026102     0.03200
C163        C  0.36799365  0.11936942  0.42433601     0.03200
C164        C  0.34163005  0.08273657  0.42798470     0.03200
C165        C  0.30332276  0.07189951  0.43336678     0.03200
C166        C  0.29223364  0.09809580  0.43847903     0.03200
C167        C  0.31585993  0.13305208  0.42489249     0.03200
O168        O  0.07595049  0.46362547  0.02132237    -0.77500
C169        C  0.47353126  0.36961202  0.03423018     0.83500
O170        O  0.03450040  0.42340400  0.40736515    -0.78700
O171        O  0.40731498  0.41661106  0.45011130    -0.80100
O172        O  0.98737148  0.02067398  0.02269579    -0.79900
O173        O  0.07411641  0.51518971  0.02425311    -0.78600
Zn174      Zn  0.03122496  0.42227133  0.49558483     1.55700
O175        O  0.44093245  0.45767053  0.03000797    -0.80000
Cd176      Cd  0.03054130  0.51162722  0.99103773     1.59700
Cd177      Cd  0.01042914  0.45369042  0.42725385     1.59600
O178        O  0.05666810  0.04573191  0.44695563    -0.79900
O179        O  0.00649689  0.45108667  0.47842383    -1.90500
Cd180      Cd  0.45478051  0.42647649  0.99457606     1.59900
O181        O  0.03539736  0.50695615  0.40621310    -0.79900
O182        O  0.44856835  0.37846878  0.02415071    -0.78600
C183        C  0.04458940  0.40122938  0.41967962     0.84000
C184        C  0.08864128  0.49528536  0.03337679     0.83600
O185        O  0.50802113  0.38822672  0.02416468    -0.77500
C186        C  0.46216972  0.99281359  0.04887931     0.84400
O187        O  0.04529369  0.39778617  0.45211228    -0.77600
C188        C  0.05091331  0.03981434  0.41530511     0.84600
C189        C  0.41446478  0.42255445  0.41831537     0.84900
O190        O  0.44837306  0.43601480  0.40692385    -0.80000
O191        O  0.16876808  0.35564130  0.27000225    -0.77500
C192        C  0.08644263  0.23718796  0.25351994     0.83500
O193        O  0.14557235  0.30557189  0.37994318    -0.78700
O194        O  0.12436709  0.19385374  0.33773164    -0.80100
O195        O  0.24252459  0.28984667  0.26207737    -0.79900
O196        O  0.22970683  0.37054426  0.26644388    -0.78600
Zn197      Zn  0.13619325  0.30663507  0.29783414     1.55700
O198        O  0.19836484  0.23180160  0.26865693    -0.80000
Cd199      Cd  0.22788409  0.32257096  0.29337967     1.59700
Cd200      Cd  0.17476900  0.28216364  0.35943020     1.59600
O201        O  0.26857004  0.33865719  0.33455472    -0.79900
O202        O  0.17246686  0.28708446  0.30975614    -1.90500
Cd203      Cd  0.15225821  0.23427299  0.29592672     1.59900
O204        O  0.22933999  0.30800604  0.37700205    -0.79900
O205        O  0.10785296  0.22376261  0.26197726    -0.78600
C206        C  0.12494994  0.32001933  0.37328156     0.84000
C207        C  0.20275119  0.37793543  0.25989947     0.83600
O208        O  0.09170423  0.26710198  0.26603465    -0.77500
C209        C  0.23028425  0.25629757  0.25604600     0.84400
O210        O  0.11666048  0.32272225  0.34250813    -0.77600
C211        C  0.26280636  0.32855063  0.36585458     0.84600
C212        C  0.12861658  0.19811688  0.36948615     0.84900
O213        O  0.14970520  0.22963080  0.37991437    -0.80000
C214        C  0.38198729  0.02536889  0.39984947    -0.26700
C215        C  0.40871888  0.03397777  0.42522130     0.02900
C216        C  0.40294755  0.04715614  0.45589909     0.31000
C217        C  0.37536197  0.05724497  0.45794457    -0.18500
C218        C  0.35538407  0.05671314  0.42962334    -0.27900
C219        C  0.35584393  0.03786124  0.40143734     0.45100
C220        C  0.44784235  0.04462695  0.41516999     0.06200
O221        O  0.42941244  0.05910237  0.48052763    -0.56400
H222        H  0.37416310  0.07142795  0.47969393     0.19200
O223        O  0.33393269  0.03487393  0.37425859    -0.63100
H224        H  0.38597161  0.01528012  0.37642638     0.17600
C225        C  0.47132218  0.04209626  0.43951283     0.29900
C226        C  0.00338826  0.06866056  0.44507420    -0.24000
C227        C  0.01674748  0.09675591  0.42110663    -0.23300
C228        C  0.99507508  0.09451949  0.39296553     0.41300
C229        C  0.46392716  0.07231242  0.39038947    -0.25700
O230        O  0.45871390  0.01196422  0.45981874    -0.57600
H231        H  0.01940493  0.07044810  0.46725551     0.17000
O232        O  0.00803066  0.12174754  0.36897078    -0.59000
H233        H  0.44705349  0.07463282  0.37044350     0.15400
H234        H  0.34554647  0.05906113  0.36314690     0.47300
H235        H  0.46851892  0.99728856  0.44902361     0.42700
H236        H  0.01634932  0.11277136  0.34973935     0.46100
H237        H  0.42575689  0.03739114  0.49324417     0.37600
C238        C  0.25853193  0.16760041  0.37885864    -0.26700
C239        C  0.24508793  0.14188977  0.35371467     0.02900
C240        C  0.26384178  0.12225369  0.34686300     0.31000
C241        C  0.29211962  0.12483616  0.36787075    -0.18500
C242        C  0.29931335  0.14416791  0.39737380    -0.27900
C243        C  0.28562782  0.16856398  0.40123908     0.45100
C244        C  0.20661612  0.12905470  0.34198652     0.06200
O245        O  0.25412869  0.10012529  0.32005344    -0.56400
H246        H  0.30533340  0.10835848  0.36339524     0.19200
O247        O  0.29345479  0.18858660  0.42941379    -0.63100
H248        H  0.24429964  0.18301638  0.38412794     0.17600
C249        C  0.17824157  0.09555440  0.35452391     0.29900
C250        C  0.14125952  0.08885746  0.35521740    -0.24000
C251        C  0.13177027  0.11397867  0.34133222    -0.23300
C252        C  0.15861236  0.14288169  0.32157725     0.41300
C253        C  0.19658720  0.15189378  0.32393258    -0.25700
O254        O  0.18674419  0.07123353  0.37008624    -0.57600
H255        H  0.12030949  0.06472353  0.36828259     0.17000
O256        O  0.14840498  0.16268299  0.30072409    -0.59000
H257        H  0.21797394  0.17705129  0.31283089     0.15400
H258        H  0.31865580  0.20955067  0.42485005     0.47300
H259        H  0.17549850  0.04974080  0.35607938     0.42700
H260        H  0.13004954  0.14549443  0.28503204     0.46100
H261        H  0.23661127  0.07572718  0.32898181     0.37600
C262        C  0.50324813  0.24863830  0.41936969    -0.26700
C263        C  0.50845104  0.22531074  0.39839070     0.02900
C264        C  0.53156553  0.24029844  0.36906123     0.31000
C265        C  0.54471320  0.27671033  0.35970389    -0.18500
C266        C  0.03382725  0.29027313  0.38070773    -0.27900
C267        C  0.01592482  0.27787377  0.41217760     0.45100
C268        C  0.48292880  0.18591628  0.40496625     0.06200
O269        O  0.54264681  0.22019654  0.35033003    -0.56400
H270        H  0.55941650  0.28706297  0.33584064     0.19200
O271        O  0.01206327  0.30058569  0.43329455    -0.63100
H272        H  0.48498718  0.23861148  0.44147929     0.17600
C273        C  0.45983780  0.16490985  0.37925472     0.29900
C274        C  0.42318868  0.13783221  0.38645435    -0.24000
C275        C  0.40893768  0.13203127  0.41935655    -0.23300
C276        C  0.43408117  0.14727808  0.44577827     0.41300
C277        C  0.47152450  0.17311389  0.43832944    -0.25700
O278        O  0.47085724  0.17344683  0.34660239    -0.57600
H279        H  0.40440450  0.12519486  0.36589297     0.17000
O280        O  0.42106196  0.14121085  0.47849512    -0.59000
H281        H  0.48961312  0.18712477  0.45878689     0.15400
H282        H  0.99095880  0.30322303  0.42444466     0.47300
H283        H  0.48532780  0.16068008  0.34235620     0.42700
H284        H  0.43394954  0.12919470  0.48984640     0.46100
H285        H  0.53661431  0.22298592  0.32667392     0.37600
C286        C  0.19028611  0.05268394  0.45682542    -0.26700
C287        C  0.19054920  0.02573898  0.47764692     0.02900
C288        C  0.22309729  0.03424429  0.49643855     0.31000
C289        C  0.25600079  0.06640791  0.48932129    -0.18500
C290        C  0.25817104  0.08739044  0.46060463    -0.27900
C291        C  0.22400338  0.08337490  0.44800284     0.45100
C292        C  0.14324173  0.47719144  0.46809210     0.06200
O293        O  0.20639544  0.50710293  0.51302742    -0.56400
H294        H  0.28173896  0.07038194  0.50116880     0.19200
O295        O  0.22312659  0.10695167  0.42480209    -0.63100
H296        H  0.16504459  0.04757013  0.44344299     0.17600
C297        C  0.13367361  0.44919174  0.49236514     0.29900
C298        C  0.11888985  0.41414411  0.48208343    -0.24000
C299        C  0.11743713  0.40680605  0.44789675    -0.23300
C300        C  0.12897588  0.43478508  0.42356384     0.41300
C301        C  0.14007421  0.46920388  0.43372503    -0.25700
O302        O  0.13920006  0.45565806  0.52601659    -0.57600
H303        H  0.11091311  0.39281125  0.50101949     0.17000
O304        O  0.12987472  0.42909925  0.38983796    -0.59000
H305        H  0.14919711  0.49022726  0.41433184     0.15400
H306        H  0.21344607  0.12088736  0.43719260     0.47300
H307        H  0.15432505  0.44431021  0.53393119     0.42700
H308        H  0.14989855  0.42229925  0.38669809     0.46100
H309        H  0.21411319  0.49295774  0.49869684     0.37600
C310        C  0.26028811  0.94073923  0.35982628    -0.26700
C311        C  0.24685522  0.93297116  0.39348030     0.02900
C312        C  0.24605279  0.40411821  0.40852881     0.31000
C313        C  0.27551031  0.39711997  0.40087822    -0.18500
C314        C  0.29573968  0.40943292  0.37031280    -0.27900
C315        C  0.28300514  0.42565736  0.34608152     0.45100
C316        C  0.24536786  0.96200094  0.41272979     0.06200
O317        O  0.22585677  0.39081741  0.43802505    -0.56400
H318        H  0.28478897  0.38531859  0.42026988     0.19200
O319        O  0.30059643  0.43643527  0.31509548    -0.63100
H320        H  0.25472365  0.95851057  0.34384760     0.17600
C321        C  0.26482793  0.97342330  0.44353340     0.29900
C322        C  0.27809692  0.00855584  0.45320557    -0.24000
C323        C  0.27495356  0.03336453  0.43181566    -0.23300
C324        C  0.25041511  0.02099555  0.40470310     0.41300
C325        C  0.23496051  0.98520576  0.39582411    -0.25700
O326        O  0.27592031  0.95269988  0.46217894    -0.57600
H327        H  0.29542333  0.01764923  0.47520235     0.17000
O328        O  0.24489120  0.04441429  0.38440634    -0.59000
H329        H  0.21893385  0.97715046  0.37301872     0.15400
H330        H  0.29133080  0.41418317  0.30233206     0.47300
H331        H  0.30218632  0.96040051  0.45454382     0.42700
H332        H  0.25945241  0.04675356  0.36348053     0.46100
H333        H  0.21273288  0.36443946  0.43591614     0.37600
C334        C  0.42207532  0.31525818  0.39880973    -0.26700
C335        C  0.40103926  0.28301414  0.38241494     0.02900
C336        C  0.36598473  0.27593514  0.36906187     0.31000
C337        C  0.35250885  0.30020433  0.37313928    -0.18500
C338        C  0.37102149  0.32963475  0.39386946    -0.27900
C339        C  0.40627706  0.33710724  0.40663965     0.45100
C340        C  0.40937807  0.25299078  0.38839133     0.06200
O341        O  0.34161440  0.24281655  0.35746147    -0.56400
H342        H  0.32455351  0.29299422  0.36427436     0.19200
O343        O  0.42374962  0.36303985  0.42959582    -0.63100
H344        H  0.44897165  0.32130250  0.40884111     0.17600
C345        C  0.40161172  0.22712831  0.36398456     0.29900
C346        C  0.38588262  0.19102091  0.37427890    -0.24000
C347        C  0.38043329  0.18141827  0.40870971    -0.23300
C348        C  0.39680765  0.20799267  0.43241861     0.41300
C349        C  0.41205129  0.24384270  0.42199146    -0.25700
O350        O  0.40465487  0.23628327  0.33037968    -0.57600
H351        H  0.37546429  0.17054096  0.35563708     0.17000
O352        O  0.39553682  0.19903512  0.46594358    -0.59000
H353        H  0.42143354  0.26401113  0.44068568     0.15400
H354        H  0.40973501  0.35255912  0.45112593     0.47300
H355        H  0.43197205  0.24745010  0.32476868     0.42700
H356        H  0.36873516  0.18876594  0.47314467     0.46100
H357        H  0.34750903  0.24437916  0.33319327     0.37600
C358        C  0.46764855  0.02860802  0.30987457    -0.26700
C359        C  0.44882257  0.04194112  0.28956071     0.02900
C360        C  0.43755956  0.02807021  0.25740304     0.31000
C361        C  0.93877517  0.04420718  0.21796875    -0.18500
C362        C  0.47828270  0.00108441  0.26150564    -0.27900
C363        C  0.48071887  0.00667089  0.29628632     0.45100
C364        C  0.45592824  0.07868954  0.29449346     0.06200
O365        O  0.92640350  0.09352106  0.21581916    -0.56400
H366        H  0.94272076  0.04647238  0.19089631     0.19200
O367        O  0.45765891  0.50006379  0.33211147    -0.63100
H368        H  0.47490240  0.03759093  0.33527303     0.17600
C369        C  0.42650395  0.08710928  0.29624790     0.29900
C370        C  0.43381271  0.12207057  0.28824530    -0.24000
C371        C  0.47085082  0.14949067  0.27999433    -0.23300
C372        C  0.50051481  0.14121500  0.28180589     0.41300
C373        C  0.49291365  0.10608745  0.28854689    -0.25700
O374        O  0.39020166  0.06084671  0.30286549    -0.57600
H375        H  0.41017983  0.12736095  0.28758840     0.17000
O376        O  0.03298303  0.17798571  0.28869478    -0.59000
H377        H  0.99555168  0.10856460  0.29050092     0.15400
H378        H  0.44399058  0.47413205  0.32751920     0.47300
H379        H  0.39012160  0.05226627  0.32626417     0.42700
H380        H  0.04132017  0.16917546  0.30849375     0.46100
H381        H  0.95251910  0.11367961  0.21344495     0.37600
C382        C  0.06704349  0.38935506  0.17418168    -0.26700
C383        C  0.04294405  0.36778518  0.14926212     0.02900
C384        C  0.54091447  0.41401928  0.19885642     0.31000
C385        C  0.54096101  0.44435299  0.21131421    -0.18500
C386        C  0.02254997  0.41034239  0.18643510    -0.27900
C387        C  0.05426553  0.40692261  0.19556658     0.45100
C388        C  0.03110937  0.32925226  0.15378752     0.06200
O389        O  0.52813324  0.40408796  0.16701710    -0.56400
H390        H  0.53193899  0.45947273  0.19499958     0.19200
O391        O  0.06751350  0.41320161  0.22767860    -0.63100
H392        H  0.08806792  0.38287892  0.18399503     0.17600
C393        C  0.03036846  0.30672010  0.12819216     0.29900
C394        C  0.02828767  0.27352574  0.13718566    -0.24000
C395        C  0.02906033  0.26421189  0.17132466    -0.23300
C396        C  0.02867959  0.28713941  0.19608560     0.41300
C397        C  0.02430013  0.31611793  0.18705752    -0.25700
O398        O  0.03379308  0.31755342  0.09502933    -0.57600
H399        H  0.02834644  0.25628087  0.11776758     0.17000
O400        O  0.50610050  0.27320956  0.26789675    -0.59000
H401        H  0.51046995  0.33508616  0.26422219     0.15400
H402        H  0.09541982  0.42640949  0.22549536     0.47300
H403        H  0.00811811  0.30389642  0.08594262     0.42700
H404        H  0.53048980  0.28317929  0.27954638     0.46100
H405        H  0.54772401  0.42241580  0.15165051     0.37600
C406        C  0.38297034  0.27258100  0.26360266    -0.26700
C407        C  0.38141291  0.30269400  0.27404677     0.02900
C408        C  0.34741569  0.30062644  0.28556723     0.31000
C409        C  0.31457687  0.26780327  0.28580886    -0.18500
C410        C  0.31565722  0.23798812  0.27328805    -0.27900
C411        C  0.35023054  0.24024284  0.26290687     0.45100
C412        C  0.41412653  0.33701637  0.26810442     0.06200
O413        O  0.34539701  0.33090220  0.29348092    -0.56400
H414        H  0.28833239  0.26588998  0.29464664     0.19200
O415        O  0.35195360  0.21124626  0.25069066    -0.63100
H416        H  0.40926063  0.27459751  0.25444208     0.17600
C417        C  0.43563311  0.35628367  0.29498418     0.29900
C418        C  0.46059193  0.39232406  0.29006396    -0.24000
C419        C  0.46450560  0.40851720  0.25823399    -0.23300
C420        C  0.44706228  0.38803841  0.23025828     0.41300
C421        C  0.42106792  0.35209686  0.23552748    -0.25700
O422        O  0.43031243  0.34077192  0.32645240    -0.57600
H423        H  0.47499082  0.40817210  0.31142119     0.17000
O424        O  0.45291068  0.40357725  0.19859346    -0.59000
H425        H  0.40479793  0.33659831  0.21467624     0.15400
H426        H  0.35541030  0.19885476  0.27073157     0.47300
H427        H  0.44480853  0.32748037  0.32616178     0.42700
H428        H  0.45987147  0.38902230  0.18405434     0.46100
H429        H  0.35888544  0.33896436  0.31485502     0.37600
C430        C  0.14402461  0.12320499  0.19842830    -0.26700
C431        C  0.12901593  0.12505473  0.16754285     0.02900
C432        C  0.15271851  0.14676356  0.14137529     0.31000
C433        C  0.19057760  0.17018043  0.14758353    -0.18500
C434        C  0.20410706  0.17347534  0.18053971    -0.27900
C435        C  0.18065528  0.14786198  0.20562603     0.45100
C436        C  0.08799792  0.10621255  0.16528037     0.06200
O437        O  0.13820878  0.14844998  0.11103563    -0.56400
H438        H  0.20802423  0.18842951  0.12753749     0.19200
O439        O  0.19081078  0.14915057  0.23846550    -0.63100
H440        H  0.12590821  0.10528112  0.21847972     0.17600
C441        C  0.07044749  0.07260633  0.15055382     0.29900
C442        C  0.03670738  0.04601391  0.16458355    -0.24000
C443        C  0.02340010  0.05194038  0.19515521    -0.23300
C444        C  0.03686176  0.08693782  0.20597427     0.41300
C445        C  0.06822558  0.11459620  0.18949110    -0.25700
O446        O  0.08859460  0.06367287  0.12641497    -0.57600
H447        H  0.02526205  0.01902633  0.15551364     0.17000
O448        O  0.02328042  0.09354222  0.23505995    -0.59000
H449        H  0.08141136  0.14085754  0.20035381     0.15400
H450        H  0.18400575  0.16626450  0.24866371     0.47300
H451        H  0.10787891  0.05985905  0.13835526     0.42700
H452        H  0.03917422  0.09188624  0.25314062     0.46100
H453        H  0.12800123  0.12428466  0.10200984     0.37600
C454        C  0.09622039  0.47651560  0.28089870    -0.26700
C455        C  0.12809568  0.49270127  0.25956002     0.02900
C456        C  0.12450583  0.50287370  0.22612911     0.31000
C457        C  0.08882909  0.49331484  0.21379083    -0.18500
C458        C  0.05704200  0.47326971  0.23421675    -0.27900
C459        C  0.06066461  0.46577691  0.26819480     0.45100
C460        C  0.16277308  0.49281456  0.27101746     0.06200
O461        O  0.15485338  0.51847283  0.20429350    -0.56400
H462        H  0.08576003  0.49947590  0.18778282     0.19200
O463        O  0.04842259  0.02033155  0.29250556    -0.63100
H464        H  0.11265108  0.02245083  0.30565147     0.17600
C465        C  0.19864972  0.52249785  0.26496307     0.29900
C466        C  0.23053214  0.51896058  0.27112841    -0.24000
C467        C  0.22722020  0.48579916  0.28189261    -0.23300
C468        C  0.19190532  0.45772334  0.29199204     0.41300
C469        C  0.15981680  0.46124165  0.28626907    -0.25700
O470        O  0.20824925  0.07316802  0.24876141    -0.57600
H471        H  0.25668092  0.05070869  0.26046805     0.17000
O472        O  0.18826167  0.42557811  0.30379501    -0.59000
H473        H  0.13245419  0.43812012  0.29136326     0.15400
H474        H  0.03638642  0.99526812  0.30147016     0.47300
H475        H  0.20051383  0.08427674  0.26664606     0.42700
H476        H  0.17451560  0.42028050  0.32570940     0.46100
H477        H  0.15771379  0.54235961  0.19789739     0.37600
C478        C  0.35814661  0.42193404  0.23670406    -0.26700
C479        C  0.36164499  0.42938924  0.20177112     0.02900
C480        C  0.39707607  0.44523213  0.18590795     0.31000
C481        C  0.42895734  0.45606888  0.20499030    -0.18500
C482        C  0.42570280  0.44932860  0.23983843    -0.27900
C483        C  0.39021419  0.43165533  0.25583278     0.45100
C484        C  0.32900262  0.42555818  0.18310120     0.06200
O485        O  0.40058871  0.45119557  0.15182658    -0.56400
H486        H  0.45646334  0.46990284  0.19263121     0.19200
O487        O  0.38682588  0.42499203  0.28991842    -0.63100
H488        H  0.33080609  0.41021763  0.24933879     0.17600
C489        C  0.29438024  0.39402068  0.18686327     0.29900
C490        C  0.26154789  0.39548489  0.18009327    -0.24000
C491        C  0.26344557  0.42862480  0.17155208    -0.23300
C492        C  0.29764721  0.45734121  0.16022892     0.41300
C493        C  0.33076828  0.45609671  0.16678130    -0.25700
O494        O  0.29190247  0.36361556  0.20220631    -0.57600
H495        H  0.23486350  0.37261089  0.18774555     0.17000
O496        O  0.29924474  0.48849921  0.14806844    -0.59000
H497        H  0.35745772  0.48036843  0.16287152     0.15400
H498        H  0.38023400  0.44275194  0.29908448     0.47300
H499        H  0.30859134  0.35736712  0.18885493     0.42700
H500        H  0.30669641  0.49042680  0.12399408     0.46100
H501        H  0.40090463  0.42984799  0.14285494     0.37600
C502        C  0.31341230  0.35488135  0.05188120    -0.26700
C503        C  0.30931223  0.34319571  0.08588014     0.02900
C504        C  0.27480095  0.33151999  0.10287410     0.31000
C505        C  0.24380031  0.32760411  0.08501397    -0.18500
C506        C  0.24686651  0.33638797  0.05058702    -0.27900
C507        C  0.28208030  0.35127428  0.03401941     0.45100
C508        C  0.33900106  0.33761025  0.10147108     0.06200
O509        O  0.27045084  0.32045143  0.13606349    -0.52500
H510        H  0.21654746  0.31548493  0.09777469     0.19200
O511        O  0.28553356  0.36031020  0.00034200    -0.63100
H512        H  0.34010815  0.36410568  0.03858637     0.17600
C513        C  0.33185619  0.30273120  0.11114963     0.29900
C514        C  0.36178369  0.29635859  0.11868566    -0.24000
C515        C  0.39888577  0.32392667  0.11484779    -0.23300
C516        C  0.40566202  0.35961285  0.10902642     0.41300
C517        C  0.37568516  0.36606731  0.10210610    -0.25700
O518        O  0.29627178  0.27408763  0.10957270    -0.57600
H519        H  0.35603618  0.26905903  0.12341260     0.17000
O520        O  0.44162574  0.38755120  0.10484834    -0.59000
H521        H  0.38139859  0.39287472  0.09441675     0.15400
H522        H  0.28833748  0.34119672  0.98907067     0.47300
H523        H  0.30551654  0.25709049  0.49640747     0.42700
H524        H  0.44720409  0.40038905  0.12622072     0.46100
H525        H  0.25639576  0.33119988  0.14711349     0.37600
C526        C  0.99463228  0.27715817  0.98887595    -0.26700
C527        C  0.98843461  0.24236436  0.99685546     0.02900
C528        C  0.95263464  0.21524682  0.00704109     0.31000
C529        C  0.44616555  0.24679034  0.00920413    -0.18500
C530        C  0.43974382  0.27581151  0.00199623    -0.27900
C531        C  0.46802708  0.30691517  0.98587116     0.45100
C532        C  0.02105335  0.23776023  0.00290944     0.06200
O533        O  0.94641377  0.18159378  0.01680542    -0.56400
H534        H  0.42448591  0.22271473  0.02186067     0.19200
O535        O  0.46098278  0.33450660  0.97744275    -0.63100
H536        H  0.02277828  0.29853170  0.98262473     0.17600
C537        C  0.04914373  0.24783782  0.97788120     0.29900
C538        C  0.08582667  0.25858644  0.98740509    -0.24000
C539        C  0.09400469  0.25915242  0.02148998    -0.23300
C540        C  0.06536451  0.24497551  0.04607368     0.41300
C541        C  0.02864426  0.23398791  0.03661975    -0.25700
O542        O  0.04151188  0.25047130  0.94471458    -0.57600
H543        H  0.10840101  0.27009962  0.96864356     0.17000
O544        O  0.07388094  0.24658333  0.07942648    -0.59000
H545        H  0.00708432  0.22686825  0.05606537     0.15400
H546        H  0.48346615  0.35396043  0.96555664     0.47300
H547        H  0.05286819  0.27653276  0.93921759     0.42700
H548        H  0.05961088  0.22166514  0.08849378     0.46100
H549        H  0.95420716  0.17255014  0.99729120     0.37600
C550        C  0.23515744  0.42816234  0.07686811    -0.26700
C551        C  0.24711762  0.44808580  0.04644450     0.02900
C552        C  0.22920259  0.43275382  0.01669055     0.31000
C553        C  0.20808839  0.39572101  0.01585066    -0.18500
C554        C  0.20225157  0.37477139  0.04515451    -0.27900
C555        C  0.21346300  0.39098006  0.07631342     0.45100
C556        C  0.28724514  0.47190634  0.04269526     0.06200
O557        O  0.23734932  0.45311682  0.98745135    -0.56400
H558        H  0.19861956  0.38307638  0.99206177     0.19200
O559        O  0.20566286  0.37072961  0.10562433    -0.63100
H560        H  0.24797067  0.44042217  0.10013627     0.17600
C561        C  0.30208668  0.50817479  0.03403879     0.29900
C562        C  0.34088050  0.52894842  0.02949823    -0.24000
C563        C  0.36491588  0.51349023  0.03305718    -0.23300
C564        C  0.34923524  0.47653063  0.03944358     0.41300
C565        C  0.31057207  0.45597057  0.04402213    -0.25700
O566        O  0.27920339  0.52363334  0.03146370    -0.57600
H567        H  0.35213563  0.55750232  0.02494868     0.17000
O568        O  0.37139374  0.46031510  0.04121943    -0.59000
H569        H  0.29863177  0.42733101  0.04893748     0.15400
H570        H  0.23036335  0.37714861  0.11567432     0.47300
H571        H  0.27624590  0.52626814  0.00700305     0.42700
H572        H  0.41374347  0.98029811  0.98540432     0.46100
H573        H  0.22151618  0.46504647  0.98839931     0.37600
C574        C  0.02494557  0.13872162  0.10343511    -0.26700
C575        C  0.05221496  0.13389253  0.08563934     0.02900
C576        C  0.04597749  0.09925730  0.07965544     0.31000
C577        C  0.01168667  0.07020449  0.08908245    -0.18500
C578        C  0.98218221  0.07508899  0.10235579    -0.27900
C579        C  0.98976698  0.10940790  0.11164648     0.45100
C580        C  0.08513556  0.16496702  0.07042546     0.06200
O581        O  0.07290544  0.09367931  0.06381902    -0.56400
H582        H  0.00746822  0.04379124  0.08366965     0.19200
O583        O  0.45546398  0.07374471  0.18028852    -0.63100
H584        H  0.02994959  0.16526466  0.10930583     0.17600
C585        C  0.09149180  0.16783011  0.03533517     0.29900
C586        C  0.12009343  0.19943863  0.02080820    -0.24000
C587        C  0.14181784  0.22837262  0.04072256    -0.23300
C588        C  0.13787302  0.22421652  0.07600789     0.41300
C589        C  0.10893566  0.19290798  0.09062471    -0.25700
O590        O  0.06798389  0.14113833  0.01486410    -0.57600
H591        H  0.12316777  0.20277535  0.99393672     0.17000
O592        O  0.16036781  0.25184801  0.09607281    -0.59000
H593        H  0.10447501  0.19074337  0.11766952     0.15400
H594        H  0.42861830  0.05540249  0.17837431     0.47300
H595        H  0.04388987  0.14196611  0.01529157     0.42700
H596        H  0.14404214  0.26134352  0.10482589     0.46100
H597        H  0.06186986  0.08241240  0.04229696     0.37600
C598        C  0.16969238  0.14100714  0.97793869    -0.26700
C599        C  0.18658476  0.16633167  0.00303078     0.02900
C600        C  0.17871209  0.15368183  0.03707833     0.31000
C601        C  0.16196453  0.11699635  0.04474713    -0.18500
C602        C  0.15861237  0.09403849  0.01911304    -0.27900
C603        C  0.15294067  0.10421157  0.98666377     0.45100
C604        C  0.20957325  0.20537638  0.99453402     0.06200
O605        O  0.19070369  0.17664545  0.06314159    -0.56400
H606        H  0.16278345  0.10860646  0.07052138     0.19200
O607        O  0.13892979  0.07919476  0.96236894    -0.63100
H608        H  0.17157570  0.14925990  0.95172318     0.17600
C609        C  0.23740317  0.22829788  0.01670270     0.29900
C610        C  0.23869571  0.26075114  0.02407457    -0.24000
C611        C  0.21699182  0.27208196  0.00529953    -0.23300
C612        C  0.20248354  0.25573921  0.97451667     0.41300
C613        C  0.19708202  0.22121842  0.96996885    -0.25700
O614        O  0.25761921  0.21642201  0.03572952    -0.57600
H615        H  0.25216786  0.27392249  0.04678989     0.17000
O616        O  0.18455073  0.26866114  0.95365813    -0.59000
H617        H  0.17829120  0.20552980  0.95054206     0.15400
H618        H  0.12103986  0.08431389  0.94959022     0.47300
H619        H  0.27323321  0.21185590  0.01932210     0.42700
H620        H  0.20340022  0.29381531  0.94768156     0.46100
H621        H  0.17640543  0.18998085  0.06159108     0.37600
C622        C  0.15137122  0.43444821  0.12744207    -0.26700
C623        C  0.14494510  0.42181544  0.09447373     0.02900
C624        C  0.16563645  0.44699685  0.06798816     0.31000
C625        C  0.18760075  0.48322753  0.07486162    -0.18500
C626        C  0.18105760  0.49497973  0.10543056    -0.27900
C627        C  0.17350174  0.47103732  0.13296795     0.45100
C628        C  0.12110297  0.38289154  0.08767139     0.06200
O629        O  0.16408929  0.43696003  0.03535924    -0.56400
H630        H  0.20036128  0.50196763  0.05373613     0.19200
O631        O  0.17747087  0.48284382  0.16505227    -0.63100
H632        H  0.13837682  0.41695219  0.14897506     0.17600
C633        C  0.12320208  0.35608449  0.10786975     0.29900
C634        C  0.12448528  0.32788389  0.09213055    -0.24000
C635        C  0.12279825  0.32629680  0.05714840    -0.23300
C636        C  0.10771480  0.34534475  0.03951637     0.41300
C637        C  0.10552872  0.37307551  0.05559718    -0.25700
O638        O  0.12964466  0.35951224  0.14160612    -0.57600
H639        H  0.13288398  0.31104676  0.10653991     0.17000
O640        O  0.09704633  0.33876771  0.00666421    -0.59000
H641        H  0.09734144  0.39010001  0.04120779     0.15400
H642        H  0.20474300  0.49326194  0.16949694     0.47300
H643        H  0.10719232  0.33941057  0.15278392     0.42700
H644        H  0.11654460  0.33531796  0.99480162     0.46100
H645        H  0.15115017  0.44828685  0.02293463     0.37600
N646        N  0.15756539  0.02255395  0.57094564    -0.02500
C647        C  0.16366089  0.50871320  0.59834150     0.00100
C648        C  0.13171342  0.49887599  0.61819999    -0.22800
C649        C  0.10268757  0.49102412  0.59666125    -0.23000
C650        C  0.11879936  0.50289629  0.56511161     0.00000
H651        H  0.12831671  0.49102661  0.64455057     0.13700
H652        H  0.07290502  0.47722289  0.60312114     0.13800
N653        N  0.18342505  0.05915323  0.56045082    -0.02500
C654        C  0.17448622  0.07851666  0.53774999     0.00100
C655        C  0.20623508  0.10720871  0.52422453    -0.22800
C656        C  0.23588297  0.10818064  0.54064158    -0.23000
C657        C  0.22246613  0.07974288  0.56410543     0.00000
H658        H  0.20759061  0.12821520  0.50746677     0.13700
H659        H  0.26444227  0.13007742  0.53782908     0.13800
N660        N  0.43394493  0.03213224  0.57097784    -0.02500
C661        C  0.44847878  0.04729021  0.60052964     0.00100
C662        C  0.46608163  0.03025568  0.61628682    -0.22800
C663        C  0.46461583  0.00505750  0.59488095    -0.23000
C664        C  0.44746527  0.00789555  0.56594417     0.00000
H665        H  0.98354197  0.03604277  0.63767842     0.13700
H666        H  0.47972001  0.99000767  0.59802145     0.13800
N667        N  0.39862975  0.02872125  0.55962198    -0.02500
C668        C  0.37574269  0.00200260  0.53912295     0.00100
C669        C  0.34757548  0.00781153  0.52679611    -0.22800
C670        C  0.35127348  0.03798778  0.54101250    -0.23000
C671        C  0.38153099  0.05070035  0.56266910     0.00000
H672        H  0.32384530  0.98946069  0.51242926     0.13700
H673        H  0.33084666  0.04743804  0.53834705     0.13800
N674        N  0.40691294  0.27648910  0.55061032    -0.02500
C675        C  0.41092928  0.28161913  0.51675279     0.00100
C676        C  0.37934383  0.25528899  0.50183850    -0.22800
C677        C  0.36059709  0.22881288  0.52580035    -0.23000
C678        C  0.37918954  0.24076385  0.55556669     0.00000
H679        H  0.37400293  0.25211355  0.47533660     0.13700
H680        H  0.33794269  0.20219444  0.52118861     0.13800
N681        N  0.41044774  0.30560454  0.57053323    -0.02500
C682        C  0.38456437  0.30104828  0.59475938     0.00100
C683        C  0.39582507  0.33232387  0.61142589    -0.22800
C684        C  0.42802670  0.35788706  0.59512483    -0.23000
C685        C  0.43577932  0.34235082  0.56808481     0.00000
H686        H  0.37881737  0.33783404  0.62895750     0.13700
H687        H  0.43998700  0.38643732  0.59863041     0.13800
C688        C  0.17830706  0.29761073  0.55254171     0.03200
C689        C  0.14043107  0.28466149  0.56068985     0.03200
C690        C  0.11820554  0.24878602  0.57037602     0.03200
C691        C  0.12949320  0.22386760  0.56059256     0.03200
C692        C  0.16673939  0.23608504  0.54862245     0.03200
C693        C  0.19211631  0.27350194  0.54687651     0.03200
O694        O  0.42432371  0.14977480  0.68694636    -0.77500
C695        C  0.31014120  0.04142142  0.70438532     0.83500
O696        O  0.36794073  0.09812072  0.57549233    -0.78700
O697        O  0.24407286  0.07650803  0.62263810    -0.80100
O698        O  0.31911825  0.18537726  0.68734923    -0.79900
O699        O  0.41102761  0.19528319  0.68529748    -0.78600
Zn700      Zn  0.37626926  0.10639142  0.66038758     1.55700
O701        O  0.27292236  0.12856669  0.69409205    -0.80000
Cd702      Cd  0.36129750  0.18027973  0.65704642     1.59700
Cd703      Cd  0.34201022  0.12722957  0.59493761     1.59600
O704        O  0.37693216  0.21839805  0.61434632    -0.79900
O705        O  0.34138142  0.12643045  0.64545151    -1.90500
Cd706      Cd  0.28560138  0.09360269  0.66358437     1.59900
O707        O  0.36316570  0.18028878  0.57309410    -0.79900
O708        O  0.28324220  0.04763708  0.69450286    -0.78600
C709        C  0.38159581  0.07845369  0.58738014     0.84000
C710        C  0.43229967  0.18209653  0.69498202     0.83600
O711        O  0.34431951  0.06260850  0.69415914    -0.77500
C712        C  0.28694428  0.16232713  0.70027637     0.84400
O713        O  0.38760809  0.07872377  0.61922481    -0.77600
C714        C  0.37415105  0.21238686  0.58282636     0.84600
C715        C  0.25128946  0.08378599  0.59090722     0.84900
O716        O  0.28565699  0.10066167  0.58022323    -0.80000
N717        N  0.24642913  0.44752265  0.72689578    -0.02500
C718        C  0.23561835  0.44504192  0.69456120     0.00100
C719        C  0.19688111  0.42768758  0.69338556    -0.22800
C720        C  0.18371679  0.41426777  0.72517839    -0.23000
C721        C  0.21480233  0.42203189  0.74476453     0.00000
H722        H  0.18027364  0.41806108  0.67124997     0.13700
H723        H  0.15523883  0.39322324  0.73043586     0.13800
N724        N  0.27161025  0.48285446  0.73823762    -0.02500
C725        C  0.28315831  0.48564975  0.77038991     0.00100
C726        C  0.30918141  0.00959106  0.78688651    -0.22800
C727        C  0.32934817  0.02469318  0.75754087    -0.23000
C728        C  0.30454164  0.01199219  0.73118059     0.00000
H729        H  0.31806080  0.02051191  0.81146861     0.13700
H730        H  0.35631912  0.04884659  0.75660476     0.13800
N731        N  0.25009429  0.22218763  0.72549799    -0.02500
C732        C  0.24043337  0.21983554  0.69280485     0.00100
C733        C  0.25376163  0.25379758  0.67869868    -0.22800
C734        C  0.26480321  0.27690703  0.70470751    -0.23000
C735        C  0.25682440  0.25629541  0.73413670     0.00000
H736        H  0.24648167  0.25989363  0.65432285     0.13700
H737        H  0.26776955  0.30345573  0.70253793     0.13800
N738        N  0.27430651  0.20736170  0.73508848    -0.02500
C739        C  0.28932035  0.21379891  0.76601591     0.00100
C740        C  0.28556498  0.18293683  0.78079952    -0.22800
C741        C  0.26965863  0.15662581  0.75804663    -0.23000
C742        C  0.26782609  0.17288518  0.72812592     0.00000
H743        H  0.30229297  0.18224828  0.80156175     0.13700
H744        H  0.27163519  0.13219483  0.76019073     0.13800
N745        N  0.03306230  0.23231888  0.72363913    -0.02500
C746        C  0.04127032  0.25213906  0.69447335     0.00100
C747        C  0.07589917  0.25912957  0.68192988    -0.22800
C748        C  0.09044001  0.24459432  0.70426668    -0.23000
C749        C  0.06660805  0.23267480  0.73223545     0.00000
H750        H  0.09185531  0.27781191  0.66155206     0.13700
H751        H  0.11986481  0.25113527  0.70364309     0.13800
N752        N  0.49250497  0.19980143  0.73181565    -0.02500
C753        C  0.48055449  0.18609138  0.76337412     0.00100
C754        C  0.45835529  0.20003213  0.77580061    -0.22800
C755        C  0.44686131  0.21170957  0.74826440    -0.23000
C756        C  0.46263258  0.20447800  0.72055912     0.00000
H757        H  0.44423376  0.19444441  0.80009007     0.13700
H758        H  0.42222878  0.21533620  0.74849324     0.13800
C759        C  0.05911337  0.46936958  0.73134571     0.03200
C760        C  0.48460718  0.44987239  0.71570088     0.03200
C761        C  0.46457831  0.46817683  0.72061297     0.03200
C762        C  0.48362881  0.50470105  0.72559616     0.03200
C763        C  0.06199235  0.52600292  0.74266202     0.03200
C764        C  0.07982906  0.50524179  0.73967051     0.03200
N765        N  0.33812519  0.36204885  0.89738676    -0.02500
C766        C  0.35010179  0.34230298  0.91499035     0.00100
C767        C  0.32032953  0.31459410  0.93232107    -0.22800
C768        C  0.28841513  0.31484686  0.92161504    -0.23000
C769        C  0.29913652  0.34283974  0.89802047     0.00000
H770        H  0.32079183  0.29214086  0.94537204     0.13700
H771        H  0.26023750  0.29303211  0.92629900     0.13800
N772        N  0.36314455  0.39828751  0.88706342    -0.02500
C773        C  0.35287857  0.41674815  0.86543596     0.00100
C774        C  0.38455255  0.44376509  0.84920439    -0.22800
C775        C  0.41518442  0.44378767  0.86354921    -0.23000
C776        C  0.40216297  0.41719853  0.88875722     0.00000
H777        H  0.38604394  0.46548487  0.83333783     0.13700
H778        H  0.44390890  0.46503072  0.85962355     0.13800
N779        N  0.10739530  0.37938249  0.90726232    -0.02500
C780        C  0.12273277  0.40278015  0.93221881     0.00100
C781        C  0.14512164  0.39373946  0.95130079    -0.22800
C782        C  0.14635950  0.36582102  0.93599854    -0.23000
C783        C  0.12478813  0.35811704  0.90733203     0.00000
H784        H  0.16349979  0.40961263  0.97077352     0.13700
H785        H  0.16538382  0.35560567  0.94276354     0.13800
N786        N  0.07835409  0.37849531  0.88670675    -0.02500
C787        C  0.06442104  0.35631077  0.86072056     0.00100
C788        C  0.05051515  0.37166762  0.83772923    -0.22800
C789        C  0.05066539  0.40063221  0.85266002    -0.23000
C790        C  0.06497319  0.40293428  0.88466602     0.00000
H791        H  0.54400915  0.36402289  0.81774654     0.13700
H792        H  0.03554701  0.41414689  0.84333513     0.13800
N793        N  0.08769563  0.12092756  0.88800618    -0.02500
C794        C  0.09711238  0.12728794  0.85476551     0.00100
C795        C  0.06710146  0.10339389  0.83674290    -0.22800
C796        C  0.04368493  0.07638429  0.85879856    -0.23000
C797        C  0.05811081  0.08590943  0.89049115     0.00000
H798        H  0.06618409  0.10225905  0.80985054     0.13700
H799        H  0.02129787  0.05062619  0.85193609     0.13800
N800        N  0.08795422  0.14945385  0.90645946    -0.02500
C801        C  0.06127883  0.14379255  0.93018287     0.00100
C802        C  0.07037745  0.17439498  0.94702455    -0.22800
C803        C  0.10260962  0.20055918  0.93218447    -0.23000
C804        C  0.11253284  0.18620704  0.90549119     0.00000
H805        H  0.05225629  0.17885685  0.96415299     0.13700
H806        H  0.11384027  0.22863563  0.93705374     0.13800
C807        C  0.36201604  0.15145038  0.90388034     0.03200
C808        C  0.37772700  0.12919583  0.91163471     0.03200
C809        C  0.35397771  0.09291720  0.91989042     0.03200
C810        C  0.31519693  0.08010438  0.92270125     0.03200
C811        C  0.30127421  0.10475067  0.92401707     0.03200
C812        C  0.32332825  0.13911858  0.90877044     0.03200
O813        O  0.07641465  0.45825610  0.52637552    -0.77500
C814        C  0.45232192  0.36807946  0.53736251     0.83500
O815        O  0.03674220  0.43828338  0.90227107    -0.78700
O816        O  0.41932769  0.41534554  0.94905625    -0.80100
O817        O  0.99448545  0.01506820  0.52200157    -0.79900
O818        O  0.08144023  0.51267359  0.52207844    -0.78600
Zn819      Zn  0.03058275  0.42952361  0.98867965     1.55700
O820        O  0.43573178  0.46165578  0.52725121    -0.80000
Cd821      Cd  0.03352627  0.50424675  0.49287912     1.59700
Cd822      Cd  0.00903836  0.46460698  0.92305485     1.59600
O823        O  0.04937854  0.05968710  0.94949649    -0.79900
O824        O  0.00515688  0.45928320  0.97381997    -1.90500
Cd825      Cd  0.44438829  0.42758900  0.49297159     1.59900
O826        O  0.03980439  0.51831904  0.90590439    -0.79900
O827        O  0.43143960  0.37935385  0.52273963    -0.78600
C828        C  0.05067833  0.41844652  0.91257729     0.84000
C829        C  0.09283073  0.49150621  0.53456127     0.83600
O830        O  0.48809608  0.38385597  0.53052146    -0.77500
C831        C  0.46154384  0.99853766  0.53378949     0.84400
O832        O  0.04977029  0.41108126  0.94450541    -0.77600
C833        C  0.04889719  0.05570330  0.91739753     0.84600
C834        C  0.42933154  0.42270961  0.91758474     0.84900
O835        O  0.46446198  0.43977658  0.90895991    -0.80000
O836        O  0.17669083  0.36700731  0.77687706    -0.77500
C837        C  0.09142727  0.24898760  0.76291463     0.83500
O838        O  0.15345759  0.32397878  0.88881893    -0.78700
O839        O  0.13303668  0.20790631  0.84613412    -0.80100
O840        O  0.24821825  0.29964553  0.76715881    -0.79900
O841        O  0.23755197  0.38185579  0.77261794    -0.78600
Zn842      Zn  0.14367209  0.31950119  0.80506194     1.55700
O843        O  0.20318803  0.24220678  0.77394838    -0.80000
Cd844      Cd  0.23514721  0.33343576  0.79947125     1.59700
Cd845      Cd  0.18082026  0.29835023  0.86719210     1.59600
O846        O  0.27592624  0.34772477  0.84092705    -0.79900
O847        O  0.17952507  0.29994500  0.81699697    -1.90500
Cd848      Cd  0.15883661  0.24672067  0.80337373     1.59900
O849        O  0.23560811  0.32225592  0.88402419    -0.79900
O850        O  0.11250142  0.23520163  0.77139590    -0.78600
C851        C  0.13406596  0.33902780  0.87954583     0.84000
C852        C  0.21046189  0.38918010  0.76641090     0.83600
O853        O  0.09795346  0.27966857  0.77452034    -0.77500
C854        C  0.23517939  0.26598814  0.76080129     0.84400
O855        O  0.12680725  0.33975947  0.84820325    -0.77600
C856        C  0.26947565  0.33934616  0.87261686     0.84600
C857        C  0.13565673  0.21375864  0.87761880     0.84900
O858        O  0.15448786  0.24599849  0.88716672    -0.80000
C859        C  0.41947117  0.05678316  0.92375397    -0.26700
C860        C  0.43662865  0.07333696  0.95355258     0.02900
C861        C  0.41711935  0.08284180  0.97678644     0.31000
C862        C  0.38350319  0.08133929  0.96759566    -0.18500
C863        C  0.37102689  0.07257025  0.93480233    -0.27900
C864        C  0.38608659  0.05617867  0.91430342     0.45100
C865        C  0.47745999  0.09204025  0.95477505     0.06200
O866        O  0.43439719  0.10093070  0.00494832    -0.56400
H867        H  0.37128007  0.09354132  0.98353107     0.19200
O868        O  0.37197482  0.04504509  0.88308402    -0.63100
H869        H  0.43442896  0.04915304  0.90589612     0.17600
C870        C  0.49655172  0.08218568  0.97806935     0.29900
C871        C  0.00022465  0.09456781  0.95127851    -0.24000
C872        C  0.02144232  0.11877421  0.92549974    -0.23300
C873        C  0.00405508  0.12164128  0.89600292     0.41300
C874        C  0.49710785  0.12288213  0.93439021    -0.25700
O875        O  0.47706290  0.05284923  0.99904504    -0.57600
H876        H  0.01360133  0.09258457  0.97412210     0.17000
O877        O  0.02427094  0.14777504  0.87191731    -0.59000
H878        H  0.48220308  0.13124007  0.91719165     0.15400
H879        H  0.34988007  0.02094354  0.88703988     0.47300
H880        H  0.48045379  0.06249102  0.02190017     0.42700
H881        H  0.02434133  0.13484325  0.85167773     0.46100
H882        H  0.43789376  0.08342523  0.01905923     0.37600
C883        C  0.26695940  0.17887078  0.86888481    -0.26700
C884        C  0.24646915  0.15058144  0.84713501     0.02900
C885        C  0.26030583  0.12702907  0.83930895     0.31000
C886        C  0.29166269  0.12955472  0.85548337    -0.18500
C887        C  0.30543439  0.15123709  0.88317976    -0.27900
C888        C  0.29614668  0.17876222  0.88790295     0.45100
C889        C  0.20712525  0.14066280  0.83981264     0.06200
O890        O  0.24242933  0.10084948  0.81662551    -0.56400
H891        H  0.30189612  0.11103195  0.84955865     0.19200
O892        O  0.30969019  0.20058825  0.91478178    -0.63100
H893        H  0.25660088  0.19727678  0.87508190     0.17600
C894        C  0.17810198  0.10847443  0.85406482     0.29900
C895        C  0.14229373  0.10449807  0.85791116    -0.24000
C896        C  0.13372196  0.13041551  0.84456643    -0.23300
C897        C  0.16018818  0.15765658  0.82286635     0.41300
C898        C  0.19777936  0.16447750  0.82267848    -0.25700
O899        O  0.18502630  0.08206520  0.86692326    -0.57600
H900        H  0.12129769  0.08121785  0.87202434     0.17000
O901        O  0.14958586  0.17704062  0.80182363    -0.59000
H902        H  0.21935875  0.18804935  0.80936695     0.15400
H903        H  0.32597201  0.22498565  0.90497284     0.47300
H904        H  0.17136257  0.06128134  0.85236937     0.42700
H905        H  0.15278450  0.17064847  0.77872156     0.46100
H906        H  0.23362123  0.07773030  0.82922074     0.37600
C907        C  0.50109013  0.26430767  0.89940705    -0.26700
C908        C  0.51086207  0.24084854  0.88320400     0.02900
C909        C  0.53683519  0.25471908  0.85563805     0.31000
C910        C  0.55175585  0.29089945  0.84514809    -0.18500
C911        C  0.04040736  0.31764002  0.86903852    -0.27900
C912        C  0.01081836  0.30801325  0.89249986     0.45100
C913        C  0.48981251  0.20220199  0.89421872     0.06200
O914        O  0.54992288  0.23433192  0.84023816    -0.56400
H915        H  0.57028448  0.30098859  0.82325291     0.19200
O916        O  0.00504358  0.33346560  0.90773014    -0.63100
H917        H  0.47981071  0.25491871  0.91927124     0.17600
C918        C  0.47160203  0.17524433  0.87080243     0.29900
C919        C  0.43592530  0.14659987  0.87876124    -0.24000
C920        C  0.41906500  0.14462067  0.90996362    -0.23300
C921        C  0.44091661  0.16616310  0.93577193     0.41300
C922        C  0.47687104  0.19412163  0.92789867    -0.25700
O923        O  0.48610470  0.17846749  0.83915927    -0.57600
H924        H  0.41956864  0.12840823  0.85961007     0.17000
O925        O  0.42494056  0.16429300  0.96677941    -0.59000
H926        H  0.49114476  0.21325925  0.94689088     0.15400
H927        H  0.99393816  0.34231298  0.89024274     0.47300
H928        H  0.49954016  0.16415287  0.83998098     0.42700
H929        H  0.44036244  0.15935292  0.98309129     0.46100
H930        H  0.57045226  0.23562744  0.85460444     0.37600
C931        C  0.19894363  0.06353412  0.94053747    -0.26700
C932        C  0.19654755  0.03541043  0.96085713     0.02900
C933        C  0.22841508  0.03961483  0.97812908     0.31000
C934        C  0.26237469  0.07102708  0.97328476    -0.18500
C935        C  0.26667463  0.09393099  0.94547971    -0.27900
C936        C  0.23376727  0.09312510  0.93323804     0.45100
C937        C  0.16529127  0.51536867  0.92065814     0.06200
O938        O  0.21316978  0.53095035  0.97572863    -0.56400
H939        H  0.28708776  0.07260227  0.98530239     0.19200
O940        O  0.23463699  0.12059368  0.91459130    -0.63100
H941        H  0.17448375  0.06061086  0.92726544     0.17600
C942        C  0.14059325  0.49663711  0.94771253     0.29900
C943        C  0.12700302  0.45977540  0.95203345    -0.24000
C944        C  0.13393894  0.44092523  0.92714127    -0.23300
C945        C  0.15513315  0.45933023  0.89805840     0.41300
C946        C  0.17057100  0.49634262  0.89491764    -0.25700
O947        O  0.13362347  0.51499169  0.97195887    -0.57600
H948        H  0.11145713  0.44594984  0.97479706     0.17000
O949        O  0.16427511  0.44182243  0.87434599    -0.59000
H950        H  0.19044458  0.51049408  0.87442389     0.15400
H951        H  0.22597682  0.13329423  0.92990970     0.47300
H952        H  0.11161678  0.51704875  0.96378604     0.42700
H953        H  0.18580280  0.43972164  0.88375817     0.46100
H954        H  0.20262039  0.53771202  0.99498838     0.37600
C955        C  0.26597426  0.94164738  0.86132431    -0.26700
C956        C  0.25033014  0.93596697  0.89406208     0.02900
C957        C  0.28805712  0.43540747  0.91763600     0.31000
C958        C  0.30728107  0.41784772  0.90662837    -0.18500
C959        C  0.32032043  0.42213333  0.87308802    -0.27900
C960        C  0.30915167  0.44020686  0.84980598     0.45100
C961        C  0.25224959  0.96754061  0.91065108     0.06200
O962        O  0.27550610  0.43021270  0.95036177    -0.56400
H963        H  0.31490975  0.40381707  0.92546190     0.19200
O964        O  0.31821478  0.44203677  0.81628357    -0.63100
H965        H  0.26532516  0.96151427  0.84436547     0.17600
C966        C  0.27470218  0.98109626  0.93951015     0.29900
C967        C  0.29186592  0.01752533  0.94528784    -0.24000
C968        C  0.28890092  0.04109163  0.92198112    -0.23300
C969        C  0.26228213  0.02717092  0.89648348     0.41300
C970        C  0.24318208  0.99043457  0.89172961    -0.25700
O971        O  0.28311187  0.96003055  0.96064580    -0.57600
H972        H  0.30929695  0.02746045  0.96708488     0.17000
O973        O  0.25717993  0.04939137  0.87419016    -0.59000
H974        H  0.22541695  0.98075756  0.87015226     0.15400
H975        H  0.30259185  0.41743508  0.80823994     0.47300
H976        H  0.30879585  0.96489924  0.95370213     0.42700
H977        H  0.26972607  0.04852446  0.85299283     0.46100
H978        H  0.25367917  0.40566991  0.95170741     0.37600
C979        C  0.42939847  0.32231641  0.90478390    -0.26700
C980        C  0.41465206  0.29664454  0.87997785     0.02900
C981        C  0.38482601  0.29488879  0.86070198     0.31000
C982        C  0.36760761  0.31514977  0.86955292    -0.18500
C983        C  0.37765304  0.33432404  0.89924240    -0.27900
C984        C  0.40889407  0.33823156  0.91668573     0.45100
C985        C  0.41675626  0.26328347  0.88597158     0.06200
O986        O  0.36796560  0.26889424  0.83755561    -0.56400
H987        H  0.34253525  0.31118562  0.85648621     0.19200
O988        O  0.41625957  0.35303053  0.94766194    -0.63100
H989        H  0.45108935  0.32294874  0.92019639     0.17600
C990        C  0.41618934  0.24157450  0.85958685     0.29900
C991        C  0.39990565  0.20447807  0.86549694    -0.24000
C992        C  0.38633004  0.18988850  0.89783567    -0.23300
C993        C  0.39280604  0.21212900  0.92492509     0.41300
C994        C  0.40783658  0.24850255  0.91892528    -0.25700
O995        O  0.42777889  0.25582478  0.82764986    -0.57600
H996        H  0.39581500  0.18706196  0.84477670     0.17000
O997        O  0.38148234  0.19810259  0.95702087    -0.59000
H998        H  0.40791018  0.26427790  0.93974585     0.15400
H999        H  0.39789464  0.33410356  0.96342087     0.47300
H1000       H  0.45333605  0.25837184  0.82479614     0.42700
H1001       H  0.35454053  0.19175553  0.95901621     0.46100
H1002       H  0.34501370  0.24957716  0.84890369     0.37600
C1003       C  0.43838853  0.01708657  0.80136280    -0.26700
C1004       C  0.42768007  0.03416812  0.77655913     0.02900
C1005       C  0.41683806  0.01854679  0.74486313     0.31000
C1006       C  0.94461067  0.01775274  0.74008328    -0.18500
C1007       C  0.44437797  0.98072989  0.75855279    -0.27900
C1008       C  0.44603224  0.98963687  0.79250031     0.45100
C1009       C  0.44295875  0.07314317  0.77812053     0.06200
O1010       O  0.92408466  0.06123953  0.73236747    -0.56400
H1011       H  0.94264104  0.01403474  0.71324634     0.19200
O1012       O  0.47746283  0.49743292  0.79685741    -0.63100
H1013       H  0.44505079  0.02768781  0.82632095     0.17600
C1014       C  0.42484663  0.08863965  0.79570937     0.29900
C1015       C  0.43790250  0.12559507  0.79158331    -0.24000
C1016       C  0.47018605  0.14782419  0.77137694    -0.23300
C1017       C  0.48928625  0.13178725  0.75547058     0.41300
C1018       C  0.47548811  0.09491669  0.75875177    -0.25700
O1019       O  0.39427512  0.06769415  0.81634930    -0.57600
H1020       H  0.42144904  0.13625071  0.80324801     0.17000
O1021       O  0.03972180  0.17261570  0.77751343    -0.59000
H1022       H  0.01237843  0.10493701  0.79081317     0.15400
H1023       H  0.50143534  0.51524108  0.80672776     0.47300
H1024       H  0.37529709  0.07574791  0.81234605     0.42700
H1025       H  0.04986743  0.17966527  0.80032307     0.46100
H1026       H  0.94705459  0.08440656  0.72714675     0.37600
C1027       C  0.08590081  0.40103851  0.71380147    -0.26700
C1028       C  0.06398499  0.38843474  0.68485967     0.02900
C1029       C  0.53016351  0.39991874  0.66092691     0.31000
C1030       C  0.53086476  0.43233442  0.66722370    -0.18500
C1031       C  0.07644007  0.45239480  0.71149953    -0.27900
C1032       C  0.09124225  0.43263779  0.72785533     0.45100
C1033       C  0.04245331  0.34943857  0.68145693     0.06200
O1034       O  0.51149419  0.38116520  0.63343948    -0.56400
H1035       H  0.51749496  0.44240895  0.64966741     0.19200
O1036       O  0.10397641  0.44000027  0.76005166    -0.63100
H1037       H  0.09308547  0.38348064  0.72851808     0.17600
C1038       C  0.04482489  0.33208472  0.65277975     0.29900
C1039       C  0.03581684  0.29602941  0.65583675    -0.24000
C1040       C  0.02853011  0.27886430  0.68791394    -0.23300
C1041       C  0.02143263  0.29533956  0.71530951     0.41300
C1042       C  0.02529914  0.32923297  0.71084537    -0.25700
O1043       O  0.05968029  0.35068987  0.62299602    -0.57600
H1044       H  0.04068774  0.28361132  0.63436269     0.17000
O1045       O  0.51341212  0.28026941  0.75448997    -0.59000
H1046       H  0.51159118  0.33818526  0.73778056     0.15400
H1047       H  0.13183371  0.45170394  0.75779066     0.47300
H1048       H  0.08727268  0.36383619  0.62615652     0.42700
H1049       H  0.53869520  0.29297305  0.76453367     0.46100
H1050       H  0.52787039  0.39447158  0.61373623     0.37600
C1051       C  0.39190823  0.28062303  0.76180082    -0.26700
C1052       C  0.39029694  0.31176698  0.76853227     0.02900
C1053       C  0.35650508  0.31032029  0.77965890     0.31000
C1054       C  0.32380988  0.27736147  0.78202531    -0.18500
C1055       C  0.32442640  0.24665898  0.77126676    -0.27900
C1056       C  0.35894841  0.24808015  0.76230082     0.45100
C1057       C  0.42017552  0.34506042  0.75475124     0.06200
O1058       O  0.35430959  0.34109011  0.78459407    -0.56400
H1059       H  0.29786070  0.27610098  0.79070225     0.19200
O1060       O  0.36027481  0.21801806  0.75250923    -0.63100
H1061       H  0.41801476  0.28204357  0.75290572     0.17600
C1062       C  0.44547850  0.37154163  0.77550107     0.29900
C1063       C  0.46859058  0.40552659  0.76158801    -0.24000
C1064       C  0.46648581  0.41259573  0.72725538    -0.23300
C1065       C  0.44321394  0.38535690  0.70616949     0.41300
C1066       C  0.41998095  0.35148315  0.72009261    -0.25700
O1067       O  0.44576333  0.36512595  0.80943453    -0.57600
H1068       H  0.48641114  0.42696936  0.77782808     0.17000
O1069       O  0.44075334  0.39246121  0.67277473    -0.59000
H1070       H  0.40014713  0.33075184  0.70423726     0.15400
H1071       H  0.36884163  0.22278910  0.72861712     0.47300
H1072       H  0.46473297  0.35686437  0.81232170     0.42700
H1073       H  0.45048715  0.37850291  0.66062150     0.46100
H1074       H  0.36771089  0.35081497  0.80573429     0.37600
C1075       C  0.15719859  0.13006229  0.69251684    -0.26700
C1076       C  0.13075439  0.13868912  0.70612553     0.02900
C1077       C  0.13744229  0.17409199  0.70518026     0.31000
C1078       C  0.17288305  0.20128826  0.69489038    -0.18500
C1079       C  0.20152155  0.19307323  0.68563124    -0.27900
C1080       C  0.19251636  0.15724217  0.68148570     0.45100
C1081       C  0.09699705  0.11013553  0.72231677     0.06200
O1082       O  0.11122009  0.18254377  0.71786484    -0.56400
H1083       H  0.17927838  0.22885443  0.69802528     0.19200
O1084       O  0.21938613  0.14904284  0.66987807    -0.63100
H1085       H  0.15106624  0.10229810  0.69211393     0.17600
C1086       C  0.06413101  0.09284259  0.70401813     0.29900
C1087       C  0.03612246  0.05927004  0.71491624    -0.24000
C1088       C  0.04094051  0.04274371  0.74404969    -0.23300
C1089       C  0.07151549  0.06229143  0.76490185     0.41300
C1090       C  0.09998308  0.09586744  0.75343958    -0.25700
O1091       O  0.06151210  0.10638761  0.67327925    -0.57600
H1092       H  0.01299295  0.04433209  0.69832458     0.17000
O1093       O  0.07369941  0.04829759  0.79584986    -0.59000
H1094       H  0.12546029  0.10952387  0.76766050     0.15400
H1095       H  0.20629127  0.12633973  0.65771385     0.47300
H1096       H  0.07664811  0.10010859  0.65784430     0.42700
H1097       H  0.10069826  0.05632368  0.80007803     0.46100
H1098       H  0.09213871  0.17624254  0.70017548     0.37600
C1099       C  0.15593020  0.52903109  0.80226571    -0.26700
C1100       C  0.18606809  0.53382073  0.78147696     0.02900
C1101       C  0.18286234  0.53446176  0.74614316     0.31000
C1102       C  0.14855635  0.52733922  0.73215717    -0.18500
C1103       C  0.11757835  0.51912920  0.75320743    -0.27900
C1104       C  0.12156727  0.52128785  0.78829774     0.45100
C1105       C  0.21548578  0.52727337  0.79581633     0.06200
O1106       O  0.21133582  0.53707132  0.72537657    -0.56400
H1107       H  0.14540204  0.52575918  0.70513291     0.19200
O1108       O  0.05183030  0.97510544  0.79986569    -0.63100
H1109       H  0.11919336  0.98868698  0.81586266     0.17600
C1110       C  0.25361449  0.55111940  0.78889101     0.29900
C1111       C  0.27918233  0.53802810  0.78847930    -0.24000
C1112       C  0.26632968  0.50098583  0.79307957    -0.23300
C1113       C  0.22991967  0.47893270  0.80633271     0.41300
C1114       C  0.20453495  0.49222774  0.80768632    -0.25700
O1115       O  0.22286030  0.06551372  0.75675566    -0.57600
H1116       H  0.27607584  0.05212474  0.77339525     0.17000
O1117       O  0.21733864  0.44325429  0.81332145    -0.59000
H1118       H  0.17511890  0.47372835  0.81340015     0.15400
H1119       H  0.03820057  0.94924039  0.79505589     0.47300
H1120       H  0.20523127  0.07271613  0.76705930     0.42700
H1121       H  0.22362192  0.44167931  0.83707063     0.46100
H1122       H  0.22295594  0.56165335  0.71518631     0.37600
C1123       C  0.35983564  0.42956773  0.71408918    -0.26700
C1124       C  0.35693214  0.43252737  0.67898999     0.02900
C1125       C  0.38876897  0.44366928  0.65811163     0.31000
C1126       C  0.42356369  0.45418738  0.67241169    -0.18500
C1127       C  0.42666129  0.45283141  0.70737340    -0.27900
C1128       C  0.39459254  0.43916377  0.72832341     0.45100
C1129       C  0.32166686  0.42878550  0.66569757     0.06200
O1130       O  0.38626763  0.44562379  0.62394254    -0.56400
H1131       H  0.44849776  0.46406944  0.65635828     0.19200
O1132       O  0.39726454  0.43694772  0.76254112    -0.63100
H1133       H  0.33548291  0.42153785  0.73058353     0.17600
C1134       C  0.28783047  0.39872071  0.67569634     0.29900
C1135       C  0.25571010  0.40226840  0.67900363    -0.24000
C1136       C  0.25691549  0.43522397  0.67115581    -0.23300
C1137       C  0.28807167  0.46200459  0.65325566     0.41300
C1138       C  0.32125051  0.45931921  0.65180021    -0.25700
O1139       O  0.28736435  0.36770076  0.68679460    -0.57600
H1140       H  0.23138617  0.38095832  0.69220036     0.17000
O1141       O  0.28804350  0.49302088  0.64276530    -0.59000
H1142       H  0.34733659  0.48257157  0.64355089     0.15400
H1143       H  0.39768766  0.41412054  0.76709024     0.47300
H1144       H  0.28294101  0.36616270  0.71148909     0.42700
H1145       H  0.30219707  0.50073428  0.62100547     0.46100
H1146       H  0.38718258  0.42428044  0.61562717     0.37600
C1147       C  0.22760108  0.19868541  0.51855276    -0.26700
C1148       C  0.23875742  0.19429857  0.55103504     0.02900
C1149       C  0.20938994  0.18016259  0.57537188     0.31000
C1150       C  0.18237321  0.19142811  0.57389456    -0.18500
C1151       C  0.18101776  0.21037664  0.54506719    -0.27900
C1152       C  0.20004471  0.20956763  0.51569074     0.45100
C1153       C  0.27707392  0.22189985  0.56258347     0.06200
O1154       O  0.20987957  0.16023406  0.60260702    -0.52500
H1155       H  0.16556113  0.18854127  0.59617634     0.19200
O1156       O  0.19554256  0.22351380  0.48569790    -0.63100
H1157       H  0.24510905  0.20143744  0.49679089     0.17600
C1158       C  0.29923049  0.25454628  0.54374908     0.29900
C1159       C  0.33184607  0.28157520  0.55698456    -0.24000
C1160       C  0.34436625  0.27741080  0.58848040    -0.23300
C1161       C  0.32176863  0.24705242  0.60870061     0.41300
C1162       C  0.28927724  0.21903729  0.59536555    -0.25700
O1163       O  0.28947654  0.26140705  0.51256483    -0.57600
H1164       H  0.34898240  0.30537934  0.54138282     0.17000
O1165       O  0.33237710  0.24346921  0.64060028    -0.59000
H1166       H  0.27415136  0.19514828  0.61105712     0.15400
H1167       H  0.17660539  0.20257993  0.47362715     0.47300
H1168       H  0.29577849  0.26277821  0.08797791     0.42700
H1169       H  0.32640227  0.25917966  0.65447237     0.46100
H1170       H  0.19912461  0.13541425  0.59465135     0.37600
C1171       C  0.01640999  0.32708717  0.49688451    -0.26700
C1172       C  0.02427345  0.29981047  0.50708402     0.02900
C1173       C  0.99480590  0.26504709  0.51383316     0.31000
C1174       C  0.45724324  0.26072307  0.51006478    -0.18500
C1175       C  0.44725914  0.28749795  0.50304255    -0.27900
C1176       C  0.47497936  0.32143873  0.49197038     0.45100
C1177       C  0.06264294  0.30784388  0.51419186     0.06200
O1178       O  0.00171883  0.23743879  0.52272240    -0.56400
H1179       H  0.43608934  0.23394982  0.51814863     0.19200
O1180       O  0.46498755  0.34500452  0.47736863    -0.63100
H1181       H  0.03938348  0.35356245  0.49160034     0.17600
C1182       C  0.07868511  0.29004287  0.49695074     0.29900
C1183       C  0.10911715  0.28821446  0.51047211    -0.24000
C1184       C  0.12136414  0.30117627  0.54246686    -0.23300
C1185       C  0.10778921  0.32171561  0.55849650     0.41300
C1186       C  0.07882784  0.32578449  0.54373237    -0.25700
O1187       O  0.06335174  0.27262556  0.46797450    -0.57600
H1188       H  0.12008666  0.27271458  0.49794192     0.17000
O1189       O  0.11929980  0.33391621  0.59004123    -0.59000
H1190       H  0.06596832  0.33901634  0.55730133     0.15400
H1191       H  0.47650427  0.35033843  0.45454703     0.47300
H1192       H  0.05390295  0.24676531  0.47334696     0.42700
H1193       H  0.10390055  0.31336735  0.60567378     0.46100
H1194       H  0.98829647  0.21858575  0.50628142     0.37600
C1195       C  0.29299045  0.33063296  0.56177434    -0.26700
C1196       C  0.30130541  0.35339687  0.53307118     0.02900
C1197       C  0.27805244  0.33999743  0.50483631     0.31000
C1198       C  0.24480544  0.30737878  0.50751637    -0.18500
C1199       C  0.23272072  0.28931316  0.53871006    -0.27900
C1200       C  0.25820155  0.29932004  0.56512029     0.45100
C1201       C  0.32801043  0.39261449  0.53521656     0.06200
O1202       O  0.28424785  0.36050718  0.47603255    -0.56400
H1203       H  0.22529039  0.29982553  0.48694605     0.19200
O1204       O  0.24754124  0.28092063  0.59543561    -0.63100
H1205       H  0.31147911  0.33895296  0.58307327     0.17600
C1206       C  0.32752848  0.41136504  0.56391926     0.29900
C1207       C  0.34657007  0.44876400  0.56311534    -0.24000
C1208       C  0.36467794  0.46832042  0.53375242    -0.23300
C1209       C  0.36472915  0.45008548  0.50491607     0.41300
C1210       C  0.34863631  0.41268533  0.50649405    -0.25700
O1211       O  0.30624872  0.39368364  0.59207129    -0.57600
H1212       H  0.34421432  0.46262284  0.58464508     0.17000
O1213       O  0.37852442  0.46838720  0.47476197    -0.59000
H1214       H  0.34969817  0.39921148  0.48425609     0.15400
H1215       H  0.23908236  0.29474524  0.60946004     0.47300
H1216       H  0.28430214  0.39805047  0.59167259     0.42700
H1217       H  0.36013857  0.95834700  0.46797145     0.46100
H1218       H  0.27609143  0.37839725  0.48139687     0.37600
C1219       C  0.97622251  0.12829272  0.64609651    -0.26700
C1220       C  0.98737892  0.15314705  0.61877913     0.02900
C1221       C  0.97997979  0.14033469  0.58564986     0.31000
C1222       C  0.96568330  0.10414035  0.58040040    -0.18500
C1223       C  0.95652615  0.07969911  0.60752627    -0.27900
C1224       C  0.96071598  0.09168951  0.64059858     0.45100
C1225       C  0.01662509  0.19054662  0.62360530     0.06200
O1226       O  0.99135851  0.16308488  0.55785036    -0.56400
H1227       H  0.96334631  0.09541370  0.55476372     0.19200
O1228       O  0.45473250  0.07419993  0.66747292    -0.63100
H1229       H  0.98275865  0.13751131  0.67153778     0.17600
C1230       C  0.01867521  0.21765812  0.60143710     0.29900
C1231       C  0.05266516  0.23877147  0.58390981    -0.24000
C1232       C  0.08529626  0.23749821  0.59341776    -0.23300
C1233       C  0.08476291  0.22029605  0.62414233     0.41300
C1234       C  0.05006240  0.19514682  0.63824226    -0.25700
O1235       O  0.98637274  0.21755679  0.59106009    -0.57600
H1236       H  0.05251341  0.25328014  0.56160057     0.17000
O1237       O  0.11751038  0.22384222  0.63772249    -0.59000
H1238       H  0.04955160  0.17643467  0.65746841     0.15400
H1239       H  0.42783919  0.05624389  0.66512031     0.47300
H1240       H  0.98097229  0.23114821  0.60810413     0.42700
H1241       H  0.13382255  0.24986831  0.64088781     0.46100
H1242       H  0.96818774  0.16308999  0.54989287     0.37600
C1243       C  0.09415071  0.09508972  0.51149998    -0.26700
C1244       C  0.07506463  0.09069477  0.54265879     0.02900
C1245       C  0.08535435  0.07524237  0.56987347     0.31000
C1246       C  0.11958448  0.07517901  0.56869633    -0.18500
C1247       C  0.13895742  0.08028394  0.53815399    -0.27900
C1248       C  0.12541232  0.08947149  0.50907206     0.45100
C1249       C  0.05576428  0.11277075  0.54921235     0.06200
O1250       O  0.06321118  0.06136268  0.59828401    -0.56400
H1251       H  0.13012079  0.06945819  0.59169665     0.19200
O1252       O  0.14377881  0.09511181  0.47862254    -0.63100
H1253       H  0.08694424  0.10537345  0.48921573     0.17600
C1254       C  0.06086664  0.12679048  0.58135382     0.29900
C1255       C  0.08903520  0.16189262  0.58527407    -0.24000
C1256       C  0.10054321  0.18592758  0.55757611    -0.23300
C1257       C  0.08189688  0.17390529  0.52703084     0.41300
C1258       C  0.05802522  0.13699283  0.52332476    -0.25700
O1259       O  0.04154383  0.10555542  0.60862491    -0.57600
H1260       H  0.10056753  0.16977860  0.60979983     0.17000
O1261       O  0.08808436  0.19763139  0.50070587    -0.59000
H1262       H  0.04693296  0.12716010  0.49898689     0.15400
H1263       H  0.12839841  0.07314522  0.46605294     0.47300
H1264       H  0.03459555  0.12043490  0.62260035     0.42700
H1265       H  0.11265590  0.20267781  0.49053577     0.46100
H1266       H  0.04995100  0.03503990  0.59567954     0.37600
C1267       C  0.17177614  0.42351867  0.60475468    -0.26700
C1268       C  0.20471049  0.43255009  0.58638967     0.02900
C1269       C  0.22723104  0.46847554  0.57519502     0.31000
C1270       C  0.21537968  0.49396700  0.58175102    -0.18500
C1271       C  0.18132909  0.48446113  0.59946236    -0.27900
C1272       C  0.16097544  0.44871697  0.61264216     0.45100
C1273       C  0.21239377  0.40292475  0.57764665     0.06200
O1274       O  0.25925757  0.47858990  0.55591171    -0.56400
H1275       H  0.23198220  0.52058865  0.57109476     0.19200
O1276       O  0.12870053  0.43663561  0.63163185    -0.63100
H1277       H  0.15311493  0.39610318  0.61270760     0.17600
C1278       C  0.20712304  0.37621999  0.60220692     0.29900
C1279       C  0.20544304  0.34431064  0.59286393    -0.24000
C1280       C  0.20280064  0.33591003  0.55908924    -0.23300
C1281       C  0.21031131  0.36284838  0.53429347     0.41300
C1282       C  0.21645454  0.39672578  0.54373283    -0.25700
O1283       O  0.19865004  0.37906273  0.63493386    -0.57600
H1284       H  0.19876504  0.32344931  0.61209480     0.17000
O1285       O  0.20865085  0.35552564  0.50090075    -0.59000
H1286       H  0.21962570  0.41637659  0.52430786     0.15400
H1287       H  0.13714954  0.43984911  0.65522641     0.47300
H1288       H  0.17309662  0.35875822  0.64004000     0.42700
H1289       H  0.18177414  0.33955356  0.49635703     0.46100
H1290       H  0.27651530  0.47387569  0.57014992     0.37600
N1291       N  0.15143743  0.52299292  0.07108476    -0.02500
C1292       C  0.16598753  0.01862108  0.09399762     0.00100
C1293       C  0.13146496  0.00163354  0.11115511    -0.22800
C1294       C  0.10562495  0.00525308  0.09176438    -0.23000
C1295       C  0.12363684  0.02398918  0.06256156     0.00000
H1296       H  0.12332651  0.98336585  0.13269947     0.13700
H1297       H  0.07540943  0.99045752  0.09621508     0.13800
N1298       N  0.18017727  0.55643985  0.05651501    -0.02500
C1299       C  0.17250600  0.57705341  0.03455757     0.00100
C1300       C  0.20510209  0.60329083  0.01944952    -0.22800
C1301       C  0.23425752  0.60061915  0.03364182    -0.23000
C1302       C  0.21970344  0.57353620  0.05850013     0.00000
H1303       H  0.20800612  0.62567504  0.00381647     0.13700
H1304       H  0.26357911  0.62041689  0.02958069     0.13800
N1305       N  0.44358013  0.53089876  0.07989275    -0.02500
C1306       C  0.46376043  0.54332234  0.10800840     0.00100
C1307       C  0.47125647  0.51788108  0.12256025    -0.22800
C1308       C  0.45734794  0.48958206  0.10139060    -0.23000
C1309       C  0.44320399  0.49871517  0.07326061     0.00000
H1310       H  0.97360169  0.53727861  0.13805036     0.13700
H1311       H  0.46457982  0.46814924  0.10305446     0.13800
N1312       N  0.41564754  0.54138598  0.07104412    -0.02500
C1313       C  0.40521917  0.53698655  0.03869857     0.00100
C1314       C  0.42128846  0.56998574  0.02240979    -0.22800
C1315       C  0.43117182  0.59458768  0.04714172    -0.23000
C1316       C  0.42108409  0.57556921  0.07741731     0.00000
H1317       H  0.41393610  0.57413650  0.99735723     0.13700
H1318       H  0.43324559  0.62060782  0.04364275     0.13800
N1319       N  0.42904979  0.77312767  0.05673934    -0.02500
C1320       C  0.45909167  0.78235111  0.03583960     0.00100
C1321       C  0.45605203  0.75260098  0.02041732    -0.22800
C1322       C  0.42429262  0.72367388  0.03304643    -0.23000
C1323       C  0.40855364  0.73552473  0.05734217     0.00000
H1324       H  0.47838479  0.75103865  0.00670482     0.13700
H1325       H  0.41714862  0.69613803  0.02868502     0.13800
N1326       N  0.41948273  0.79937235  0.06871846    -0.02500
C1327       C  0.39004476  0.79077337  0.09007929     0.00100
C1328       C  0.39616569  0.82023759  0.10818279    -0.22800
C1329       C  0.42925426  0.84833198  0.09616486    -0.23000
C1330       C  0.44242599  0.83648531  0.06975222     0.00000
H1331       H  0.37614233  0.82301595  0.12426740     0.13700
H1332       H  0.43836295  0.87610476  0.10156095     0.13800
C1333       C  0.17511630  0.81486299  0.05986541     0.03200
C1334       C  0.13608672  0.80113570  0.06295729     0.03200
C1335       C  0.11429515  0.76579329  0.07455037     0.03200
C1336       C  0.12733969  0.74113238  0.06932115     0.03200
C1337       C  0.16587166  0.75380522  0.06198803     0.03200
C1338       C  0.19040870  0.79121680  0.05994055     0.03200
O1339       O  0.41528003  0.64936440  0.19736420    -0.77500
C1340       C  0.30146731  0.53470159  0.20161331     0.83500
O1341       O  0.37210964  0.59301518  0.08362152    -0.78700
O1342       O  0.24027183  0.57211885  0.11777165    -0.80100
O1343       O  0.30706505  0.68024325  0.18087719    -0.79900
O1344       O  0.39971163  0.69294052  0.19100622    -0.78600
Zn1345     Zn  0.37209650  0.60588165  0.16754304     1.55700
O1346       O  0.26360836  0.62247681  0.18965212    -0.80000
Cd1347     Cd  0.35356953  0.67600789  0.15709609     1.59700
Cd1348     Cd  0.33943032  0.61935093  0.09619133     1.59600
O1349       O  0.37869732  0.71374757  0.11434857    -0.79900
O1350       O  0.33620537  0.62220095  0.14651210    -1.90500
Cd1351     Cd  0.27922559  0.58853999  0.16068295     1.59900
O1352       O  0.36938412  0.67368682  0.07570270    -0.79900
O1353       O  0.27533691  0.54126344  0.19017133    -0.78600
C1354       C  0.39520241  0.58487882  0.09895453     0.84000
C1355       C  0.42142481  0.68149110  0.20357899     0.83600
O1356       O  0.33652446  0.55753304  0.19535433    -0.77500
C1357       C  0.27533583  0.65630180  0.19403080     0.84400
O1358       O  0.39961422  0.58946936  0.13076222    -0.77600
C1359       C  0.38317325  0.70674488  0.08401465     0.84600
C1360       C  0.24834561  0.57757310  0.08603942     0.84900
O1361       O  0.28333348  0.59312497  0.07625728    -0.80000
N1362       N  0.24272210  0.94024749  0.23434203    -0.02500
C1363       C  0.24391104  0.93246239  0.20183214     0.00100
C1364       C  0.20798855  0.90911165  0.19160230    -0.22800
C1365       C  0.18504657  0.89847297  0.21956742    -0.23000
C1366       C  0.20867142  0.91187850  0.24656839     0.00000
H1367       H  0.20089528  0.89364902  0.16913062     0.13700
H1368       H  0.15772433  0.87455873  0.22027259     0.13800
N1369       N  0.25439613  0.97749491  0.24078117    -0.02500
C1370       C  0.24864280  0.98497810  0.27249836     0.00100
C1371       C  0.29297728  0.49878810  0.28131855    -0.22800
C1372       C  0.31611694  0.51236535  0.25338398    -0.23000
C1373       C  0.29329356  0.50213789  0.22557530     0.00000
H1374       H  0.30038240  0.50972394  0.30608512     0.13700
H1375       H  0.34419738  0.53483963  0.25401221     0.13800
N1376       N  0.23422456  0.71388040  0.21755044    -0.02500
C1377       C  0.21716816  0.70611224  0.18740222     0.00100
C1378       C  0.22272134  0.73763340  0.17156248    -0.22800
C1379       C  0.23824870  0.76421735  0.19447924    -0.23000
C1380       C  0.24087469  0.74828495  0.22435099     0.00000
H1381       H  0.20797664  0.73927531  0.14964051     0.13700
H1382       H  0.23760460  0.78933443  0.19202353     0.13800
N1383       N  0.26041366  0.70110852  0.22569324    -0.02500
C1384       C  0.27565372  0.70846110  0.25644966     0.00100
C1385       C  0.26824947  0.67719665  0.27336942    -0.22800
C1386       C  0.25258362  0.65047214  0.25066276    -0.23000
C1387       C  0.25384903  0.66660731  0.21983193     0.00000
H1388       H  0.28197235  0.67558197  0.29608674     0.13700
H1389       H  0.25252405  0.62524692  0.25370565     0.13800
N1390       N  0.02231588  0.72527622  0.23733581    -0.02500
C1391       C  0.03443283  0.75025017  0.21171512     0.00100
C1392       C  0.06698198  0.75362269  0.19750189    -0.22800
C1393       C  0.07623298  0.73132751  0.21511136    -0.23000
C1394       C  0.05367889  0.72108682  0.24385811     0.00000
H1395       H  0.08624014  0.77501010  0.18067443     0.13700
H1396       H  0.10397689  0.73341501  0.21284624     0.13800
N1397       N  0.48095321  0.70305015  0.24243539    -0.02500
C1398       C  0.47436442  0.70282352  0.27582456     0.00100
C1399       C  0.45472664  0.72124152  0.28150358    -0.22800
C1400       C  0.43914049  0.72241142  0.25142812    -0.23000
C1401       C  0.45154462  0.70652646  0.22823872     0.00000
H1402       H  0.44255522  0.72205021  0.30548197     0.13700
H1403       H  0.41392261  0.72468573  0.24971378     0.13800
C1404       C  0.00600917  0.96580441  0.23259124     0.03200
C1405       C  0.50452802  0.93479023  0.22567407     0.03200
C1406       C  0.48373475  0.95224817  0.23269563     0.03200
C1407       C  0.50116260  0.98646982  0.24578045     0.03200
C1408       C  0.00519329  0.02111118  0.21867762     0.03200
C1409       C  0.02535935  0.00270122  0.22662412     0.03200
N1410       N  0.33388866  0.86521701  0.39720352    -0.02500
C1411       C  0.35135350  0.85083432  0.41546060     0.00100
C1412       C  0.32491590  0.82081915  0.43309385    -0.22800
C1413       C  0.29033987  0.81350745  0.42136015    -0.23000
C1414       C  0.29607599  0.83970179  0.39708549     0.00000
H1415       H  0.33066486  0.80184548  0.44670459     0.13700
H1416       H  0.26450001  0.78874154  0.42656535     0.13800
N1417       N  0.35377140  0.90173838  0.38566118    -0.02500
C1418       C  0.33930483  0.91839815  0.36587906     0.00100
C1419       C  0.36866167  0.94925781  0.35133972    -0.22800
C1420       C  0.40154828  0.95314167  0.36473820    -0.23000
C1421       C  0.39228524  0.92480326  0.38727667     0.00000
H1422       H  0.36655025  0.96978218  0.33637838     0.13700
H1423       H  0.42892043  0.97659262  0.36147234     0.13800
N1424       N  0.10516696  0.86152613  0.41822054    -0.02500
C1425       C  0.11731003  0.87849418  0.44764792     0.00100
C1426       C  0.13732025  0.86504744  0.46513064    -0.22800
C1427       C  0.13989701  0.84077746  0.44538063    -0.23000
C1428       C  0.12156494  0.83943495  0.41580370     0.00000
H1429       H  0.15283094  0.87519213  0.48793723     0.13700
H1430       H  0.15650348  0.82765577  0.45111089     0.13800
N1431       N  0.07600137  0.86176514  0.39820217    -0.02500
C1432       C  0.06006461  0.83830307  0.37306981     0.00100
C1433       C  0.04095185  0.84991292  0.35215252    -0.22800
C1434       C  0.04190110  0.87928643  0.36654887    -0.23000
C1435       C  0.06114938  0.88533678  0.39663641     0.00000
H1436       H  0.53311932  0.84857330  0.32464274     0.13700
H1437       H  0.02514133  0.89150172  0.35819068     0.13800
N1438       N  0.08147392  0.59956612  0.38009081    -0.02500
C1439       C  0.07712770  0.60124855  0.34628124     0.00100
C1440       C  0.04074536  0.57724517  0.33790475    -0.22800
C1441       C  0.02414175  0.55575696  0.36584435    -0.23000
C1442       C  0.05011247  0.56764670  0.39134608     0.00000
H1443       H  0.03025034  0.57083165  0.31269448     0.13700
H1444       H  0.99806266  0.53061916  0.36588888     0.13800
N1445       N  0.09672923  0.63267485  0.39765690    -0.02500
C1446       C  0.08407005  0.63331876  0.42874722     0.00100
C1447       C  0.11284689  0.65614142  0.44832609    -0.22800
C1448       C  0.14432840  0.67148680  0.42758398    -0.23000
C1449       C  0.13254911  0.66191401  0.39484805     0.00000
H1450       H  0.11073225  0.66458457  0.47312265     0.13700
H1451       H  0.17046308  0.69449254  0.43422535     0.13800
C1452       C  0.31662557  0.64196895  0.41348539     0.03200
C1453       C  0.33630955  0.62305099  0.42017236     0.03200
C1454       C  0.31640255  0.58545870  0.42327812     0.03200
C1455       C  0.27674696  0.56796148  0.42410224     0.03200
C1456       C  0.25829176  0.58884374  0.42606695     0.03200
C1457       C  0.27728618  0.62460424  0.41440875     0.03200
O1458       O  0.08791957  0.98169090  0.01910082    -0.77500
C1459       C  0.45886011  0.86445197  0.04052931     0.83500
O1460       O  0.04060901  0.92759901  0.41028440    -0.78700
O1461       O  0.41438227  0.92282087  0.44486162    -0.80100
O1462       O  0.98955616  0.51836992  0.02251078    -0.79900
O1463       O  0.07989525  0.02994128  0.02379521    -0.78600
Zn1464     Zn  0.03346194  0.92425039  0.49748378     1.55700
O1465       O  0.44233856  0.96064305  0.03888570    -0.80000
Cd1466     Cd  0.03184280  0.01894428  0.99175789     1.59700
Cd1467     Cd  0.01190048  0.95442404  0.42722026     1.59600
O1468       O  0.04951408  0.54286457  0.44934909    -0.79900
O1469       O  0.00835902  0.95267134  0.47804932    -1.90500
Cd1470     Cd  0.44987611  0.92754756  0.00211745     1.59900
O1471       O  0.03527638  0.00729308  0.40584994    -0.79900
O1472       O  0.43935779  0.87954939  0.03066866    -0.78600
C1473       C  0.05234825  0.90678789  0.42286980     0.84000
C1474       C  0.09805683  0.01280149  0.03156202     0.83600
O1475       O  0.49340015  0.87753519  0.03041735    -0.77500
C1476       C  0.45816760  0.48975161  0.04137370     0.84400
O1477       O  0.05165030  0.90221255  0.45525431    -0.77600
C1478       C  0.04702158  0.53853293  0.41732792     0.84600
C1479       C  0.42173262  0.92797473  0.41297618     0.84900
O1480       O  0.45589098  0.94097921  0.40196423    -0.80000
O1481       O  0.16969028  0.85811157  0.28091382    -0.77500
C1482       C  0.08158839  0.73783044  0.27218314     0.83500
O1483       O  0.14598838  0.80316325  0.39384668    -0.78700
O1484       O  0.13990140  0.69429546  0.34060691    -0.80100
O1485       O  0.23984841  0.79129218  0.26365866    -0.79900
O1486       O  0.23006931  0.87189311  0.27551962    -0.78600
Zn1487     Zn  0.13931287  0.80968770  0.31004176     1.55700
O1488       O  0.19277681  0.73446816  0.26778202    -0.80000
Cd1489     Cd  0.22840775  0.82331377  0.30005619     1.59700
Cd1490     Cd  0.17539679  0.78102193  0.36931760     1.59600
O1491       O  0.26984945  0.83984360  0.34057508    -0.79900
O1492       O  0.17411274  0.78837734  0.31936036    -1.90500
Cd1493     Cd  0.15323029  0.73629640  0.30299382     1.59900
O1494       O  0.23132009  0.81035304  0.38413696    -0.79900
O1495       O  0.10188314  0.72282955  0.27894513    -0.78600
C1496       C  0.13040454  0.82238017  0.38625347     0.84000
C1497       C  0.20347414  0.87997539  0.27012242     0.83600
O1498       O  0.09108304  0.76969136  0.28257673    -0.77500
C1499       C  0.22444655  0.75817578  0.25462522     0.84400
O1500       O  0.12615722  0.82851530  0.35525681    -0.77600
C1501       C  0.26455905  0.83112306  0.37223052     0.84600
C1502       C  0.14271338  0.69558425  0.37238666     0.84900
O1503       O  0.15510725  0.72622047  0.38608230    -0.80000
C1504       C  0.37393730  0.53924369  0.40901225    -0.26700
C1505       C  0.40004655  0.55515768  0.43455328     0.02900
C1506       C  0.39239830  0.57322182  0.46003428     0.31000
C1507       C  0.35983806  0.57616095  0.45899993    -0.18500
C1508       C  0.33790123  0.56638768  0.43033451    -0.27900
C1509       C  0.34344860  0.54590844  0.40606689     0.45100
C1510       C  0.43919934  0.56345820  0.42892490     0.06200
O1511       O  0.41885744  0.59245866  0.48331542    -0.56400
H1512       H  0.35529698  0.59171376  0.47782178     0.19200
O1513       O  0.32136837  0.53506417  0.37826018    -0.63100
H1514       H  0.37996877  0.52589251  0.38904873     0.17600
C1515       C  0.46006007  0.55965668  0.45530695     0.29900
C1516       C  0.02676691  0.59286451  0.46182391    -0.24000
C1517       C  0.04369489  0.61827587  0.43574247    -0.23300
C1518       C  0.02126450  0.62180094  0.41062898     0.41300
C1519       C  0.45792452  0.58550793  0.40071924    -0.25700
O1520       O  0.44208642  0.53859734  0.48320708    -0.57600
H1521       H  0.04332158  0.58879132  0.48050259     0.17000
O1522       O  0.03712067  0.64814696  0.38573625    -0.59000
H1523       H  0.44218399  0.59025709  0.38115961     0.15400
H1524       H  0.33666108  0.55215553  0.35986420     0.47300
H1525       H  0.45012353  0.55484491  0.50240431     0.42700
H1526       H  0.03176802  0.63564649  0.36415929     0.46100
H1527       H  0.43455904  0.61656345  0.47256215     0.37600
C1528       C  0.21935878  0.65132893  0.35864131    -0.26700
C1529       C  0.21523781  0.62911302  0.33154952     0.02900
C1530       C  0.23817672  0.61273317  0.32959839     0.31000
C1531       C  0.26208324  0.61619598  0.35556403    -0.18500
C1532       C  0.26089906  0.63273665  0.38497004    -0.27900
C1533       C  0.24159029  0.65260289  0.38589507     0.45100
C1534       C  0.17971379  0.61486202  0.31327673     0.06200
O1535       O  0.23328474  0.58905029  0.30512643    -0.56400
H1536       H  0.27832538  0.60205004  0.35449765     0.19200
O1537       O  0.23997556  0.66880652  0.41469081    -0.63100
H1538       H  0.20145418  0.66365870  0.36087372     0.17600
C1539       C  0.15194716  0.58010891  0.32347103     0.29900
C1540       C  0.11588757  0.57434176  0.33054831    -0.24000
C1541       C  0.10683088  0.60182846  0.32464060    -0.23300
C1542       C  0.13088597  0.63155945  0.30406003     0.41300
C1543       C  0.16830845  0.63889086  0.29947855    -0.25700
O1544       O  0.16156374  0.55486324  0.33458947    -0.57600
H1545       H  0.09646957  0.55002460  0.34444699     0.17000
O1546       O  0.11919640  0.65451725  0.29058835    -0.59000
H1547       H  0.18904299  0.66493130  0.28930934     0.15400
H1548       H  0.25309270  0.69487527  0.40890990     0.47300
H1549       H  0.15005944  0.53519131  0.31864240     0.42700
H1550       H  0.09637458  0.63954856  0.27763934     0.46100
H1551       H  0.25880257  0.59371143  0.29780645     0.37600
C1552       C  0.47273902  0.76549219  0.40698002    -0.26700
C1553       C  0.48117860  0.73727477  0.40508477     0.02900
C1554       C  0.51615912  0.74423399  0.39090309     0.31000
C1555       C  0.54134826  0.77877392  0.37821366    -0.18500
C1556       C  0.04471102  0.79918320  0.37959934    -0.27900
C1557       C  0.02296839  0.78397417  0.40893428     0.45100
C1558       C  0.45095914  0.70073972  0.41494188     0.06200
O1559       O  0.52627670  0.71778235  0.38938553    -0.56400
H1560       H  0.56678265  0.78247812  0.36622379     0.19200
O1561       O  0.01555416  0.80447908  0.43014779    -0.63100
H1562       H  0.44584284  0.76069593  0.41723834     0.17600
C1563       C  0.43715429  0.67326511  0.39164967     0.29900
C1564       C  0.40047162  0.64480377  0.39526617    -0.24000
C1565       C  0.37779378  0.64348166  0.42248288    -0.23300
C1566       C  0.39369350  0.66718391  0.44872153     0.41300
C1567       C  0.42986884  0.69594852  0.44452128    -0.25700
O1568       O  0.45755765  0.67610835  0.36336553    -0.57600
H1569       H  0.38859522  0.62603869  0.37522832     0.17000
O1570       O  0.37221595  0.66509624  0.47635632    -0.59000
H1571       H  0.43970345  0.71642398  0.46274301     0.15400
H1572       H  0.00016986  0.81247343  0.41709464     0.47300
H1573       H  0.46816838  0.65981703  0.36815100     0.42700
H1574       H  0.38256974  0.65719600  0.49531542     0.46100
H1575       H  0.53002175  0.71232934  0.41298967     0.37600
C1576       C  0.15798918  0.53945807  0.45503737    -0.26700
C1577       C  0.16374789  0.51551469  0.47613927     0.02900
C1578       C  0.19886541  0.52828857  0.49153287     0.31000
C1579       C  0.22896152  0.56016500  0.47972025    -0.18500
C1580       C  0.22558242  0.57588524  0.44953140    -0.27900
C1581       C  0.18931748  0.56819155  0.43926910     0.45100
C1582       C  0.16328213  0.98799593  0.47069073     0.06200
O1583       O  0.22529396  0.00966528  0.51792547    -0.56400
H1584       H  0.25665982  0.56758713  0.48944999     0.19200
O1585       O  0.18403509  0.58417656  0.41112481    -0.63100
H1586       H  0.13052236  0.53093042  0.44430342     0.17600
C1587       C  0.14712925  0.96094830  0.49606652     0.29900
C1588       C  0.12703754  0.92511324  0.48745960    -0.24000
C1589       C  0.12577968  0.91540507  0.45394877    -0.23300
C1590       C  0.14115398  0.94234960  0.42839183     0.41300
C1591       C  0.15820046  0.97817620  0.43684103    -0.25700
O1592       O  0.15196217  0.96902164  0.52930500    -0.57600
H1593       H  0.11546749  0.90456910  0.50737648     0.17000
O1594       O  0.14198495  0.93429991  0.39532950    -0.59000
H1595       H  0.17075459  0.99831326  0.41671553     0.15400
H1596       H  0.18494013  0.56979587  0.39236416     0.47300
H1597       H  0.16311228  0.95471065  0.53923375     0.42700
H1598       H  0.16107772  0.92608550  0.39372103     0.46100
H1599       H  0.22767005  0.99216770  0.50355992     0.37600
C1600       C  0.25759752  0.43734373  0.35603298    -0.26700
C1601       C  0.24258061  0.43027320  0.38912047     0.02900
C1602       C  0.25122349  0.90633414  0.41086467     0.31000
C1603       C  0.28263819  0.90255837  0.40276833    -0.18500
C1604       C  0.30133317  0.91515098  0.37139147    -0.27900
C1605       C  0.28642477  0.93055453  0.34825883     0.45100
C1606       C  0.23688905  0.45840171  0.40574840     0.06200
O1607       O  0.23054007  0.89038712  0.43965603    -0.56400
H1608       H  0.29324612  0.89177677  0.42209095     0.19200
O1609       O  0.30076333  0.94030795  0.31604313    -0.63100
H1610       H  0.25405467  0.45595020  0.33947880     0.17600
C1611       C  0.25474891  0.47274609  0.43654393     0.29900
C1612       C  0.26183128  0.50684733  0.44531290    -0.24000
C1613       C  0.25454863  0.52834823  0.42273384    -0.23300
C1614       C  0.23219111  0.51268752  0.39477622     0.41300
C1615       C  0.22293343  0.47766573  0.38683242    -0.25700
O1616       O  0.27031384  0.45639022  0.45604719    -0.57600
H1617       H  0.27771935  0.51826736  0.46771829     0.17000
O1618       O  0.22255643  0.53251148  0.37321571    -0.59000
H1619       H  0.20861314  0.46735802  0.36361342     0.15400
H1620       H  0.29448980  0.91755453  0.30499866     0.47300
H1621       H  0.29655825  0.46606038  0.44730206     0.42700
H1622       H  0.23849457  0.53707309  0.35270151     0.46100
H1623       H  0.22138436  0.86434670  0.43746353     0.37600
C1624       C  0.41394263  0.81366803  0.41225453    -0.26700
C1625       C  0.39591461  0.79228503  0.38490502     0.02900
C1626       C  0.37985889  0.80478288  0.36038284     0.31000
C1627       C  0.37584800  0.83467216  0.36709759    -0.18500
C1628       C  0.38269624  0.84800644  0.39974404    -0.27900
C1629       C  0.40638015  0.84115373  0.42047281     0.45100
C1630       C  0.37799816  0.75364545  0.39139182     0.06200
O1631       O  0.35833628  0.78275566  0.33561640    -0.56400
H1632       H  0.35817952  0.84051445  0.35055685     0.19200
O1633       O  0.41481332  0.85528881  0.45178157    -0.63100
H1634       H  0.42587411  0.80376993  0.43129824     0.17600
C1635       C  0.38102981  0.73012009  0.36907646     0.29900
C1636       C  0.35976941  0.69328244  0.37558725    -0.24000
C1637       C  0.33694309  0.68031501  0.40485932    -0.23300
C1638       C  0.33414403  0.70378554  0.42700942     0.41300
C1639       C  0.35378571  0.74015810  0.41967499    -0.25700
O1640       O  0.40372274  0.74269383  0.34077581    -0.57600
H1641       H  0.36139563  0.67484202  0.35824932     0.17000
O1642       O  0.31415307  0.69125122  0.45685553    -0.59000
H1643       H  0.35064164  0.75806736  0.43662947     0.15400
H1644       H  0.39736770  0.83595262  0.46770850     0.47300
H1645       H  0.42990992  0.75457113  0.34893096     0.42700
H1646       H  0.29344588  0.69733867  0.45580374     0.46100
H1647       H  0.37624836  0.78117858  0.31964504     0.37600
C1648       C  0.43012042  0.53729397  0.31902885    -0.26700
C1649       C  0.42356180  0.55864533  0.29553515     0.02900
C1650       C  0.42672499  0.55423349  0.26082235     0.31000
C1651       C  0.91784545  0.48234014  0.21994311    -0.18500
C1652       C  0.45449133  0.51654790  0.27433266    -0.27900
C1653       C  0.44601639  0.51652205  0.30852981     0.45100
C1654       C  0.43160369  0.59436619  0.30560470     0.06200
O1655       O  0.89417649  0.52312060  0.20842413    -0.56400
H1656       H  0.91317247  0.47436249  0.19406602     0.19200
O1657       O  0.49592014  0.99094226  0.31699269    -0.63100
H1658       H  0.42809522  0.54067667  0.34563222     0.17600
C1659       C  0.40625416  0.60735716  0.29970901     0.29900
C1660       C  0.42035673  0.64405958  0.29362958    -0.24000
C1661       C  0.45960182  0.66774663  0.29348926    -0.23300
C1662       C  0.48404538  0.65489546  0.30373659     0.41300
C1663       C  0.46971931  0.61842188  0.31044859    -0.25700
O1664       O  0.36869808  0.58416339  0.29559989    -0.57600
H1665       H  0.40082896  0.65335298  0.28584319     0.17000
O1666       O  0.00892346  0.64679468  0.22595140    -0.59000
H1667       H  0.97906182  0.57804459  0.22616327     0.15400
H1668       H  0.52318339  0.00350179  0.31151562     0.47300
H1669       H  0.35499108  0.59134598  0.31177371     0.42700
H1670       H  0.03064050  0.65262244  0.24060746     0.46100
H1671       H  0.86760602  0.50415480  0.20653933     0.37600
C1672       C  0.04036852  0.89922084  0.24809107    -0.26700
C1673       C  0.03643001  0.88580685  0.21548895     0.02900
C1674       C  0.56519313  0.90015369  0.16879373     0.31000
C1675       C  0.56269789  0.92911853  0.18164119    -0.18500
C1676       C  0.02531009  0.94448333  0.22762611    -0.27900
C1677       C  0.03327957  0.92748650  0.25448713     0.45100
C1678       C  0.03181465  0.84930943  0.21172600     0.06200
O1679       O  0.55609317  0.89140155  0.13593701    -0.56400
H1680       H  0.55429640  0.94458393  0.16514389     0.19200
O1681       O  0.02976382  0.93534888  0.28705801    -0.63100
H1682       H  0.04549611  0.88570775  0.26925604     0.17600
C1683       C  0.04713268  0.84015610  0.18417131     0.29900
C1684       C  0.04136277  0.80527780  0.18198507    -0.24000
C1685       C  0.02636245  0.78074210  0.20957643    -0.23300
C1686       C  0.01156129  0.79009287  0.23739171     0.41300
C1687       C  0.01209135  0.82303223  0.23713603    -0.25700
O1688       O  0.07006776  0.86536691  0.16044239    -0.57600
H1689       H  0.05234383  0.79881125  0.15987374     0.17000
O1690       O  0.47463182  0.75614714  0.17146074    -0.59000
H1691       H  0.50367831  0.82618344  0.17293378     0.15400
H1692       H  0.05558496  0.94630201  0.29605495     0.47300
H1693       H  0.09529786  0.87763890  0.17063308     0.42700
H1694       H  0.45937101  0.76341307  0.18568611     0.46100
H1695       H  0.57853322  0.89171555  0.12544982     0.37600
C1696       C  0.37834704  0.76681552  0.23929243    -0.26700
C1697       C  0.38262374  0.80022247  0.24655913     0.02900
C1698       C  0.35251999  0.80355846  0.26061562     0.31000
C1699       C  0.31779062  0.77291363  0.26648648    -0.18500
C1700       C  0.31334537  0.73925022  0.25873733    -0.27900
C1701       C  0.34447731  0.73621209  0.24651549     0.45100
C1702       C  0.41914222  0.83122566  0.23958818     0.06200
O1703       O  0.35627841  0.83656698  0.26713572    -0.56400
H1704       H  0.29439651  0.77551331  0.27650748     0.19200
O1705       O  0.34153616  0.70352375  0.23996797    -0.63100
H1706       H  0.40138594  0.76487537  0.22743824     0.17600
C1707       C  0.44384608  0.84758970  0.26588404     0.29900
C1708       C  0.47626949  0.87979377  0.25951488    -0.24000
C1709       C  0.48387234  0.89559886  0.22713331    -0.23300
C1710       C  0.46262871  0.87638268  0.19991487     0.41300
C1711       C  0.42965830  0.84421167  0.20635815    -0.25700
O1712       O  0.43516193  0.83385306  0.29819064    -0.57600
H1713       H  0.49305150  0.89446850  0.28050496     0.17000
O1714       O  0.47142722  0.89089751  0.16783670    -0.59000
H1715       H  0.41133236  0.83050377  0.18584414     0.15400
H1716       H  0.34615594  0.69451644  0.26170662     0.47300
H1717       H  0.44551092  0.81697905  0.30031167     0.42700
H1718       H  0.48186052  0.87709050  0.15632957     0.46100
H1719       H  0.36694557  0.84204435  0.28989934     0.37600
C1720       C  0.13711958  0.61033736  0.18676140    -0.26700
C1721       C  0.10726597  0.61525165  0.19851502     0.02900
C1722       C  0.11247596  0.64999545  0.20135407     0.31000
C1723       C  0.14812642  0.67937211  0.19580999    -0.18500
C1724       C  0.17893664  0.67469180  0.18603749    -0.27900
C1725       C  0.17273765  0.63990109  0.17967993     0.45100
C1726       C  0.07185794  0.58368691  0.20972414     0.06200
O1727       O  0.08325214  0.65549404  0.21084488    -0.56400
H1728       H  0.15201321  0.70590653  0.20048638     0.19200
O1729       O  0.20147604  0.63457727  0.16775244    -0.63100
H1730       H  0.13289066  0.58345046  0.18361712     0.17600
C1731       C  0.04310744  0.56513450  0.18704733     0.29900
C1732       C  0.01613559  0.52972439  0.19474289    -0.24000
C1733       C  0.01599585  0.51364389  0.22592307    -0.23300
C1734       C  0.04039395  0.53446839  0.25087843     0.41300
C1735       C  0.06926999  0.56899871  0.24214336    -0.25700
O1736       O  0.04295146  0.58029106  0.15639688    -0.57600
H1737       H  0.99724391  0.51368179  0.17552893     0.17000
O1738       O  0.03711679  0.52035337  0.28293875    -0.59000
H1739       H  0.09109763  0.58323522  0.25976893     0.15400
H1740       H  0.19096942  0.61709161  0.14960906     0.47300
H1741       H  0.02929089  0.59401279  0.16025935     0.42700
H1742       H  0.06277194  0.52565696  0.28960069     0.46100
H1743       H  0.07144572  0.65690639  0.18949776     0.37600
C1744       C  0.10744063  0.02331252  0.27905016    -0.26700
C1745       C  0.13156228  0.02091744  0.25526144     0.02900
C1746       C  0.12496588  0.02260272  0.22073930     0.31000
C1747       C  0.09178057  0.02212098  0.21052016    -0.18500
C1748       C  0.06569395  0.02098451  0.23449637    -0.27900
C1749       C  0.07453062  0.02327336  0.26877510     0.45100
C1750       C  0.16174102  0.01356218  0.26645481     0.06200
O1751       O  0.14861655  0.02060189  0.19707875    -0.56400
H1752       H  0.08437277  0.01807478  0.18435042     0.19200
O1753       O  0.02936564  0.44719271  0.28876184    -0.63100
H1754       H  0.09857327  0.46961442  0.30686969     0.17600
C1755       C  0.19936643  0.03967330  0.26134474     0.29900
C1756       C  0.22787839  0.03077692  0.26670031    -0.24000
C1757       C  0.21923909  0.99570484  0.27716564    -0.23300
C1758       C  0.18163795  0.97039063  0.28506907     0.41300
C1759       C  0.15296802  0.97937429  0.27954334    -0.25700
O1760       O  0.20328948  0.55382811  0.24979986    -0.57600
H1761       H  0.25780040  0.54087746  0.26329928     0.17000
O1762       O  0.17246860  0.93645465  0.29652095    -0.59000
H1763       H  0.12382208  0.95917354  0.28384125     0.15400
H1764       H  0.02942644  0.42465113  0.29569850     0.47300
H1765       H  0.18572692  0.56027891  0.26142480     0.42700
H1766       H  0.17369182  0.93777724  0.32135767     0.46100
H1767       H  0.16386232  0.04543107  0.18775808     0.37600
C1768       C  0.37837000  0.91140252  0.23184786    -0.26700
C1769       C  0.37342253  0.91702360  0.19769370     0.02900
C1770       C  0.40401820  0.92975062  0.17487771     0.31000
C1771       C  0.43977919  0.94001704  0.18683304    -0.18500
C1772       C  0.44500193  0.93668061  0.22120740    -0.27900
C1773       C  0.41416636  0.92098717  0.24371648     0.45100
C1774       C  0.33866251  0.91711998  0.18828291     0.06200
O1775       O  0.39956685  0.93475280  0.14139974    -0.56400
H1776       H  0.46379254  0.95199474  0.16951522     0.19200
O1777       O  0.41914513  0.91638140  0.27723548    -0.63100
H1778       H  0.35501338  0.90212406  0.24975245     0.17600
C1779       C  0.30357327  0.88772000  0.19692260     0.29900
C1780       C  0.27186980  0.89242716  0.19832782    -0.24000
C1781       C  0.27504145  0.92631809  0.19123511    -0.23300
C1782       C  0.30919200  0.95435507  0.17838900     0.41300
C1783       C  0.34102935  0.94977444  0.17732840    -0.25700
O1784       O  0.30062647  0.85503937  0.20576247    -0.57600
H1785       H  0.24531221  0.87021408  0.20721450     0.17000
O1786       O  0.31181057  0.98635147  0.16766087    -0.59000
H1787       H  0.36803478  0.97255524  0.17026603     0.15400
H1788       H  0.41353195  0.93355869  0.28906521     0.47300
H1789       H  0.29576647  0.85204322  0.23040939     0.42700
H1790       H  0.31789598  0.98874983  0.14322757     0.46100
H1791       H  0.40049481  0.91465030  0.13016723     0.37600
C1792       C  0.23125643  0.72490913  0.02709001    -0.26700
C1793       C  0.23659177  0.70804053  0.05599708     0.02900
C1794       C  0.20717438  0.69311568  0.08020208     0.31000
C1795       C  0.18255109  0.70716850  0.08234280    -0.18500
C1796       C  0.18117023  0.72901323  0.05606613    -0.27900
C1797       C  0.20180970  0.73318101  0.02631758     0.45100
C1798       C  0.27571788  0.71833361  0.06649985     0.06200
O1799       O  0.20684472  0.67037607  0.10530781    -0.52500
H1800       H  0.16786609  0.70387205  0.10589424     0.19200
O1801       O  0.19894843  0.75236985  0.99927173    -0.63100
H1802       H  0.25216177  0.73624709  0.00703221     0.17600
C1803       C  0.30475500  0.72692992  0.04256776     0.29900
C1804       C  0.34204832  0.74963588  0.05092570    -0.24000
C1805       C  0.35162140  0.76163470  0.08378963    -0.23300
C1806       C  0.32328141  0.74887803  0.10892002     0.41300
C1807       C  0.28574879  0.72802980  0.10012813    -0.25700
O1808       O  0.29679975  0.71410196  0.01074834    -0.57600
H1809       H  0.36324806  0.75907771  0.03100176     0.17000
O1810       O  0.33190060  0.75756964  0.14189621    -0.59000
H1811       H  0.26470358  0.72231328  0.11958925     0.15400
H1812       H  0.17217551  0.73947826  0.99266268     0.47300
H1813       H  0.30112181  0.75074566  0.47924243     0.42700
H1814       H  0.31982048  0.77224843  0.14787419     0.46100
H1815       H  0.19641418  0.64666530  0.09488522     0.37600
C1816       C  0.01155650  0.82485433  0.97712565    -0.26700
C1817       C  0.02088715  0.79864056  0.98794898     0.02900
C1818       C  0.99224081  0.76457988  0.99869646     0.31000
C1819       C  0.50987436  0.80829005  0.07599168    -0.18500
C1820       C  0.49719824  0.81022341  0.04378827    -0.27900
C1821       C  0.52341489  0.83062012  0.01808719     0.45100
C1822       C  0.05936925  0.80963013  0.99847037     0.06200
O1823       O  0.00033004  0.73784938  0.00823978    -0.56400
H1824       H  0.48997500  0.79172794  0.09569375     0.19200
O1825       O  0.51159623  0.83369194  0.98649106    -0.63100
H1826       H  0.03357499  0.85090603  0.96824195     0.17600
C1827       C  0.07783441  0.79044914  0.98879821     0.29900
C1828       C  0.10789951  0.79316509  0.00752716    -0.24000
C1829       C  0.11749168  0.81224978  0.03740258    -0.23300
C1830       C  0.10193736  0.83438441  0.04504462     0.41300
C1831       C  0.07347660  0.83367561  0.02491800    -0.25700
O1832       O  0.06468196  0.76656987  0.96328527    -0.57600
H1833       H  0.12101668  0.77710128  0.00101321     0.17000
O1834       O  0.11170515  0.85386833  0.07365025    -0.59000
H1835       H  0.05946703  0.84866234  0.03237211     0.15400
H1836       H  0.50217682  0.80988978  0.97652706     0.47300
H1837       H  0.06542031  0.78067811  0.94280103     0.42700
H1838       H  0.09331170  0.83802087  0.09124344     0.46100
H1839       H  0.99362692  0.72194278  0.98883185     0.37600
C1840       C  0.29546265  0.83199527  0.07032233    -0.26700
C1841       C  0.30676817  0.85730684  0.04327299     0.02900
C1842       C  0.28102140  0.85144730  0.01714794     0.31000
C1843       C  0.24403646  0.82481927  0.02113779    -0.18500
C1844       C  0.23106743  0.80639848  0.05193177    -0.27900
C1845       C  0.25716124  0.80765153  0.07565099     0.45100
C1846       C  0.33914494  0.89381164  0.04674342     0.06200
O1847       O  0.28970913  0.87454823  0.98983794    -0.56400
H1848       H  0.22427727  0.82169419  0.00167384     0.19200
O1849       O  0.24534614  0.78768935  0.10509588    -0.63100
H1850       H  0.31519746  0.83439731  0.08965664     0.17600
C1851       C  0.34309035  0.91229863  0.07678645     0.29900
C1852       C  0.36199506  0.94962643  0.07598541    -0.24000
C1853       C  0.37575991  0.96896745  0.04546587    -0.23300
C1854       C  0.37398001  0.95086622  0.01603181     0.41300
C1855       C  0.35824460  0.91364675  0.01751050    -0.25700
O1856       O  0.32556591  0.89461670  0.10636150    -0.57600
H1857       H  0.36261112  0.96340854  0.09869405     0.17000
O1858       O  0.38586438  0.96912238  0.98559469    -0.59000
H1859       H  0.35626443  0.89990197  0.99460263     0.15400
H1860       H  0.23947626  0.80226693  0.12062533     0.47300
H1861       H  0.29929404  0.89030509  0.10489507     0.42700
H1862       H  0.36752281  0.44957953  0.06432703     0.46100
H1863       H  0.28192985  0.89244166  0.99635383     0.37600
C1864       C  0.97426913  0.63683227  0.13994786    -0.26700
C1865       C  0.98638400  0.66066417  0.11194224     0.02900
C1866       C  0.98340889  0.64693533  0.07946056     0.31000
C1867       C  0.96930871  0.61036433  0.07575693    -0.18500
C1868       C  0.95683538  0.58658890  0.10372838    -0.27900
C1869       C  0.95947480  0.60002897  0.13605148     0.45100
C1870       C  0.01095634  0.69923343  0.11698389     0.06200
O1871       O  0.99788813  0.66920073  0.05145335    -0.56400
H1872       H  0.96891511  0.60068343  0.05076811     0.19200
O1873       O  0.48184992  0.57916069  0.17162285    -0.63100
H1874       H  0.97797726  0.64697270  0.16505535     0.17600
C1875       C  0.01152273  0.72479349  0.09351832     0.29900
C1876       C  0.04642126  0.75116951  0.08069953    -0.24000
C1877       C  0.07956235  0.75441180  0.09478934    -0.23300
C1878       C  0.07737850  0.73700357  0.12580827     0.41300
C1879       C  0.04301021  0.70822822  0.13611326    -0.25700
O1880       O  0.97912668  0.71930043  0.07795888    -0.57600
H1881       H  0.04711123  0.76538658  0.05775016     0.17000
O1882       O  0.10956945  0.74233911  0.14202420    -0.59000
H1883       H  0.04304995  0.68994706  0.15555463     0.15400
H1884       H  0.46010930  0.58336632  0.17574934     0.47300
H1885       H  0.96758995  0.72981190  0.09291430     0.42700
H1886       H  0.12611558  0.76865270  0.14282210     0.46100
H1887       H  0.97576824  0.66514640  0.03791003     0.37600
C1888       C  0.09989653  0.60606278  0.01376264    -0.26700
C1889       C  0.08193395  0.60091804  0.04557275     0.02900
C1890       C  0.08576174  0.57772280  0.06885528     0.31000
C1891       C  0.11808254  0.57422453  0.06695643    -0.18500
C1892       C  0.13832848  0.58131531  0.03634709    -0.27900
C1893       C  0.12696348  0.59503925  0.00870569     0.45100
C1894       C  0.07465818  0.62988227  0.05794566     0.06200
O1895       O  0.06146024  0.56303127  0.09591081    -0.56400
H1896       H  0.12650752  0.56517558  0.08931498     0.19200
O1897       O  0.14476553  0.60137241  0.97785724    -0.63100
H1898       H  0.09633541  0.62184968  0.99377788     0.17600
C1899       C  0.08765181  0.64464611  0.08998583     0.29900
C1900       C  0.09750710  0.68003950  0.09526568    -0.24000
C1901       C  0.10009290  0.70250673  0.06823566    -0.23300
C1902       C  0.08187754  0.68739411  0.03835423     0.41300
C1903       C  0.06698172  0.65055366  0.03425500    -0.25700
O1904       O  0.09721467  0.62754641  0.11461416    -0.57600
H1905       H  0.10960326  0.69092590  0.11908156     0.17000
O1906       O  0.08120731  0.70865117  0.01218156    -0.59000
H1907       H  0.05474030  0.63955914  0.01044930     0.15400
H1908       H  0.12913859  0.57982107  0.96487361     0.47300
H1909       H  0.12463233  0.63626691  0.11141995     0.42700
H1910       H  0.10196949  0.71189618  0.99665240     0.46100
H1911       H  0.04365946  0.53821261  0.08959458     0.37600
C1912       C  0.20441881  0.95636192  0.11819779    -0.26700
C1913       C  0.22447407  0.95826288  0.08868544     0.02900
C1914       C  0.23640556  0.98829172  0.06731221     0.31000
C1915       C  0.21881873  0.00943726  0.06988228    -0.18500
C1916       C  0.19424579  0.00507410  0.09704863    -0.27900
C1917       C  0.19207470  0.98142688  0.12375159     0.45100
C1918       C  0.22436462  0.92571716  0.07640711     0.06200
O1919       O  0.26135521  0.99417736  0.04132927    -0.56400
H1920       H  0.22230719  0.02693782  0.04897917     0.19200
O1921       O  0.17525102  0.98023974  0.15409025    -0.63100
H1922       H  0.19532107  0.93382979  0.13551441     0.17600
C1923       C  0.23275957  0.90402549  0.09778818     0.29900
C1924       C  0.21885131  0.86786736  0.09134873    -0.24000
C1925       C  0.19924769  0.85403950  0.06185409    -0.23300
C1926       C  0.19859358  0.87772478  0.03700235     0.41300
C1927       C  0.20962052  0.91310057  0.04473434    -0.25700
O1928       O  0.25394681  0.91798551  0.12528186    -0.57600
H1929       H  0.22168590  0.85039509  0.11004776     0.17000
O1930       O  0.18485777  0.86588657  0.00599148    -0.59000
H1931       H  0.20429456  0.92974374  0.02687805     0.15400
H1932       H  0.19631639  0.99491774  0.16900591     0.47300
H1933       H  0.27984170  0.93337608  0.11609952     0.42700
H1934       H  0.20357294  0.86051468  0.99534707     0.46100
H1935       H  0.28504555  0.99836204  0.05215393     0.37600
N1936       N  0.15805834  0.52055319  0.56792414    -0.02500
C1937       C  0.16176969  0.01060105  0.60186947     0.00100
C1938       C  0.13000360  0.00262100  0.62142722    -0.22800
C1939       C  0.10190874  0.99719186  0.59946559    -0.23000
C1940       C  0.11847257  0.00715322  0.56786592     0.00000
H1941       H  0.12485461  0.99224894  0.64715745     0.13700
H1942       H  0.07202948  0.98402453  0.60546430     0.13800
N1943       N  0.18159959  0.55804469  0.55929379    -0.02500
C1944       C  0.17034994  0.57733104  0.53889310     0.00100
C1945       C  0.20111199  0.60636969  0.52411092    -0.22800
C1946       C  0.23222460  0.60748579  0.53787539    -0.23000
C1947       C  0.22071124  0.57902155  0.56102274     0.00000
H1948       H  0.20145757  0.62787176  0.50882832     0.13700
H1949       H  0.26040606  0.62980905  0.53416141     0.13800
N1950       N  0.42769836  0.53032833  0.57083635    -0.02500
C1951       C  0.44287572  0.54772619  0.59930215     0.00100
C1952       C  0.46087693  0.53189394  0.61636527    -0.22800
C1953       C  0.45934182  0.50547963  0.59653394    -0.23000
C1954       C  0.44081349  0.50559465  0.56753831     0.00000
H1955       H  0.98903877  0.53992092  0.64259141     0.13700
H1956       H  0.47513851  0.49121899  0.60061290     0.13800
N1957       N  0.39559467  0.53043651  0.55549541    -0.02500
C1958       C  0.37478985  0.50638554  0.53203320     0.00100
C1959       C  0.34930963  0.51500369  0.51788137    -0.22800
C1960       C  0.35219348  0.54385405  0.53410733    -0.23000
C1961       C  0.37967564  0.55335671  0.55831490     0.00000
H1962       H  0.32701725  0.49888278  0.50104774     0.13700
H1963       H  0.33284885  0.55447346  0.53068003     0.13800
N1964       N  0.41577130  0.77929751  0.54594900    -0.02500
C1965       C  0.42424484  0.78303263  0.51243006     0.00100
C1966       C  0.39571239  0.75557410  0.49566222    -0.22800
C1967       C  0.37299966  0.73067424  0.51934580    -0.23000
C1968       C  0.38730371  0.74357215  0.55042486     0.00000
H1969       H  0.39765812  0.74919027  0.46993998     0.13700
H1970       H  0.35193747  0.70357213  0.51418540     0.13800
N1971       N  0.41395484  0.80883978  0.56097280    -0.02500
C1972       C  0.38449341  0.80418549  0.58078003     0.00100
C1973       C  0.39320578  0.83475226  0.59770494    -0.22800
C1974       C  0.42827358  0.86007964  0.58597955    -0.23000
C1975       C  0.44016396  0.84527225  0.56089586     0.00000
H1976       H  0.37396532  0.83994709  0.61256070     0.13700
H1977       H  0.44005255  0.88846985  0.59031298     0.13800
C1978       C  0.17870738  0.79976432  0.55779718     0.03200
C1979       C  0.14027712  0.78625454  0.56280841     0.03200
C1980       C  0.11824902  0.75069509  0.57325960     0.03200
C1981       C  0.13056527  0.72588829  0.56589470     0.03200
C1982       C  0.16801029  0.73860687  0.55411012     0.03200
C1983       C  0.19313132  0.77603640  0.55295202     0.03200
O1984       O  0.42391579  0.65026304  0.68484892    -0.77500
C1985       C  0.30908929  0.54014843  0.69794419     0.83500
O1986       O  0.36599803  0.60024882  0.57227307    -0.78700
O1987       O  0.24348846  0.57631225  0.61909869    -0.80100
O1988       O  0.31749148  0.68590028  0.68669777    -0.79900
O1989       O  0.41019623  0.69542464  0.68282123    -0.78600
Zn1990     Zn  0.37541882  0.60775994  0.65706453     1.55700
O1991       O  0.27166202  0.62853750  0.69078395    -0.80000
Cd1992     Cd  0.36067802  0.68204737  0.65469363     1.59700
Cd1993     Cd  0.34077124  0.62921218  0.59203974     1.59600
O1994       O  0.37977114  0.72120116  0.61100368    -0.79900
O1995       O  0.34059745  0.62806430  0.64260836    -1.90500
Cd1996     Cd  0.28487138  0.59395524  0.66025328     1.59900
O1997       O  0.36492192  0.68240284  0.57034801    -0.79900
O1998       O  0.28212351  0.54677063  0.68937350    -0.78600
C1999       C  0.37922561  0.58017224  0.58374217     0.84000
C2000       C  0.43171393  0.68258066  0.69278648     0.83600
O2001       O  0.34320981  0.56238669  0.68845223    -0.77500
C2002       C  0.28474360  0.66186196  0.69839789     0.84400
O2003       O  0.38534030  0.58005511  0.61545353    -0.77600
C2004       C  0.37799965  0.71501842  0.57935510     0.84600
C2005       C  0.25030922  0.58413804  0.58739792     0.84900
O2006       O  0.28453775  0.60242763  0.57660865    -0.80000
N2007       N  0.25143935  0.94869907  0.73143187    -0.02500
C2008       C  0.24429681  0.94738078  0.69823539     0.00100
C2009       C  0.20596428  0.93350810  0.69425305    -0.22800
C2010       C  0.18910550  0.91730786  0.72447244    -0.23000
C2011       C  0.21787334  0.92209206  0.74595664     0.00000
H2012       H  0.19154210  0.92790058  0.67076084     0.13700
H2013       H  0.15971257  0.89727643  0.72733327     0.13800
N2014       N  0.27094779  0.98422626  0.74429479    -0.02500
C2015       C  0.27234349  0.98813936  0.77795863     0.00100
C2016       C  0.32184842  0.49977194  0.77050741    -0.22800
C2017       C  0.33455021  0.51239055  0.73840157    -0.23000
C2018       C  0.30351707  0.50707264  0.71992596     0.00000
H2019       H  0.33940850  0.50882465  0.79235255     0.13700
H2020       H  0.36342533  0.53133629  0.73208871     0.13800
N2021       N  0.25765724  0.72867317  0.72517565    -0.02500
C2022       C  0.26476527  0.73986159  0.69238768     0.00100
C2023       C  0.28628077  0.77660637  0.68963935    -0.22800
C2024       C  0.28764122  0.78885546  0.72129405    -0.23000
C2025       C  0.26420823  0.75945833  0.74178707     0.00000
H2026       H  0.29292475  0.79300418  0.66672622     0.13700
H2027       H  0.29717472  0.81661446  0.72661008     0.13800
N2028       N  0.26975718  0.70341246  0.73711325    -0.02500
C2029       C  0.26789595  0.69609908  0.77066810     0.00100
C2030       C  0.24730533  0.65970046  0.77716155    -0.22800
C2031       C  0.24055054  0.64380282  0.74669356    -0.23000
C2032       C  0.26011417  0.67075391  0.72254332     0.00000
H2033       H  0.24452428  0.64594800  0.80113124     0.13700
H2034       H  0.23098442  0.61554237  0.74398314     0.13800
N2035       N  0.02852377  0.73437108  0.72381526    -0.02500
C2036       C  0.03463246  0.75230154  0.69352131     0.00100
C2037       C  0.06966400  0.76094556  0.68070261    -0.22800
C2038       C  0.08576413  0.74770603  0.70262274    -0.23000
C2039       C  0.06269579  0.73500159  0.73091418     0.00000
H2040       H  0.08433693  0.77896117  0.65951893     0.13700
H2041       H  0.11536878  0.75493281  0.70121964     0.13800
N2042       N  0.49341331  0.70516921  0.73115760    -0.02500
C2043       C  0.48660222  0.70228888  0.76497796     0.00100
C2044       C  0.46400154  0.71735991  0.77283866    -0.22800
C2045       C  0.44656491  0.71758708  0.74368650    -0.23000
C2046       C  0.46135171  0.70567953  0.71878318     0.00000
H2047       H  0.45258415  0.71729628  0.79756672     0.13700
H2048       H  0.42080091  0.71913222  0.74212641     0.13800
C2049       C  0.02284636  0.95516719  0.71470720     0.03200
C2050       C  0.47154515  0.91048712  0.73607866     0.03200
C2051       C  0.44900344  0.92677450  0.74147313     0.03200
C2052       C  0.46635916  0.96374960  0.74688464     0.03200
C2053       C  0.02110552  0.00330612  0.74486086     0.03200
C2054       C  0.04142672  0.98711471  0.73186572     0.03200
N2055       N  0.32617457  0.85867767  0.91018732    -0.02500
C2056       C  0.33678224  0.84263312  0.93452142     0.00100
C2057       C  0.30630592  0.81216799  0.94764006    -0.22800
C2058       C  0.27608186  0.80738987  0.92922636    -0.23000
C2059       C  0.28833214  0.83467771  0.90471323     0.00000
H2060       H  0.30681434  0.79254457  0.96521663     0.13700
H2061       H  0.24836359  0.78429078  0.93167084     0.13800
N2062       N  0.34969607  0.89506271  0.89822120    -0.02500
C2063       C  0.33814972  0.91295422  0.87654203     0.00100
C2064       C  0.36889976  0.94370934  0.86365212    -0.22800
C2065       C  0.39988684  0.94664461  0.87948320    -0.23000
C2066       C  0.38830616  0.91798634  0.90210572     0.00000
H2067       H  0.36870304  0.96507046  0.84844378     0.13700
H2068       H  0.42766838  0.96984657  0.87749460     0.13800
N2069       N  0.10180703  0.87324386  0.90832679    -0.02500
C2070       C  0.11272985  0.88862774  0.93831503     0.00100
C2071       C  0.12800476  0.87181712  0.95722150    -0.22800
C2072       C  0.12986404  0.84714636  0.93754267    -0.23000
C2073       C  0.11537971  0.84888699  0.90650340     0.00000
H2074       H  0.14119942  0.88034770  0.98108487     0.13700
H2075       H  0.14407278  0.83197589  0.94441178     0.13800
N2076       N  0.07325861  0.87550219  0.88915401    -0.02500
C2077       C  0.05569051  0.85257393  0.86429222     0.00100
C2078       C  0.04253849  0.86879657  0.84156183    -0.22800
C2079       C  0.04760025  0.90007931  0.85537889    -0.23000
C2080       C  0.06385973  0.90298092  0.88659036     0.00000
H2081       H  0.52177952  0.84050079  0.83084683     0.13700
H2082       H  0.03431195  0.91533966  0.84620299     0.13800
N2083       N  0.09670491  0.61625291  0.88892858    -0.02500
C2084       C  0.12850699  0.62903834  0.86959773     0.00100
C2085       C  0.13268037  0.60122576  0.85709184    -0.22800
C2086       C  0.10445588  0.57032753  0.87136165    -0.23000
C2087       C  0.08332451  0.57934857  0.89267037     0.00000
H2088       H  0.15705282  0.60310181  0.84390132     0.13700
H2089       H  0.10267947  0.54419473  0.86975887     0.13800
N2090       N  0.08212759  0.63869279  0.90106927    -0.02500
C2091       C  0.05456070  0.62734446  0.92506516     0.00100
C2092       C  0.05366257  0.65612923  0.93920595    -0.22800
C2093       C  0.07965476  0.68619757  0.92206247    -0.23000
C2094       C  0.09614141  0.67578638  0.89716886     0.00000
H2095       H  0.03255920  0.65513288  0.95673314     0.13700
H2096       H  0.08406449  0.71301604  0.92590568     0.13800
C2097       C  0.37050660  0.68241073  0.90518746     0.03200
C2098       C  0.39028318  0.66284894  0.90567448     0.03200
C2099       C  0.37149489  0.62647536  0.91569322     0.03200
C2100       C  0.33193227  0.60749563  0.91581146     0.03200
C2101       C  0.31136034  0.62665587  0.91231186     0.03200
C2102       C  0.33089403  0.66439420  0.90755288     0.03200
O2103       O  0.07907874  0.96081148  0.52852071    -0.77500
C2104       C  0.45847220  0.87186394  0.53096758     0.83500
O2105       O  0.04072513  0.94334653  0.90258698    -0.78700
O2106       O  0.41171909  0.91808790  0.95981636    -0.80100
O2107       O  0.99646435  0.51081457  0.52881320    -0.79900
O2108       O  0.07918466  0.01329333  0.52459915    -0.78600
Zn2109     Zn  0.04294817  0.94330016  0.98873279     1.55700
O2110       O  0.44359192  0.96622208  0.52369483    -0.80000
Cd2111     Cd  0.03464815  0.00669656  0.49106416     1.59700
Cd2112     Cd  0.01398210  0.97026944  0.92470443     1.59600
O2113       O  0.05703765  0.55322273  0.95000728    -0.79900
O2114       O  0.01066837  0.96587057  0.97566303    -1.90500
Cd2115     Cd  0.45172403  0.93318444  0.48785648     1.59900
O2116       O  0.03775176  0.02424112  0.90617684    -0.79900
O2117       O  0.43866657  0.88452991  0.51661077    -0.78600
C2118       C  0.05456121  0.92360769  0.91354691     0.84000
C2119       C  0.09286126  0.99386210  0.53705925     0.83600
O2120       O  0.49435543  0.88701504  0.52491580    -0.77500
C2121       C  0.45440860  0.49427763  0.53647061     0.84400
O2122       O  0.05713638  0.92037243  0.94561331    -0.77600
C2123       C  0.05729519  0.54963689  0.91789852     0.84600
C2124       C  0.41776911  0.92126073  0.92776411     0.84900
O2125       O  0.45126039  0.93265038  0.91586102    -0.80000
O2126       O  0.17622410  0.86627042  0.77577893    -0.77500
C2127       C  0.08861952  0.74981220  0.76089794     0.83500
O2128       O  0.14530956  0.81700694  0.88600976    -0.78700
O2129       O  0.12650801  0.70124047  0.84028323    -0.80100
O2130       O  0.24793050  0.79828431  0.77340114    -0.79900
O2131       O  0.23686913  0.88004452  0.77585943    -0.78600
Zn2132     Zn  0.14165305  0.81856282  0.80361440     1.55700
O2133       O  0.20255945  0.74079219  0.77278136    -0.80000
Cd2134     Cd  0.23165493  0.83066116  0.80322040     1.59700
Cd2135     Cd  0.17186300  0.79037653  0.86617003     1.59600
O2136       O  0.26890458  0.84280908  0.84681834    -0.79900
O2137       O  0.17498588  0.79607748  0.81634284    -1.90500
Cd2138     Cd  0.15526310  0.74350664  0.80009182     1.59900
O2139       O  0.22545443  0.81126305  0.88628724    -0.79900
O2140       O  0.10958241  0.73527743  0.76770738    -0.78600
C2141       C  0.12782955  0.83407220  0.87725942     0.84000
C2142       C  0.21084680  0.88815248  0.76742172     0.83600
O2143       O  0.09570097  0.78011460  0.77361442    -0.77500
C2144       C  0.23641304  0.76565627  0.76441773     0.84400
O2145       O  0.12333380  0.83828562  0.84584781    -0.77600
C2146       C  0.26013027  0.83072049  0.87745299     0.84600
C2147       C  0.12264147  0.70544116  0.87177946     0.84900
O2148       O  0.13892988  0.73706491  0.88319692    -0.80000
C2149       C  0.44799105  0.60387522  0.93271482    -0.26700
C2150       C  0.46467975  0.62725234  0.95927256     0.02900
C2151       C  0.44450268  0.64145926  0.97592333     0.31000
C2152       C  0.40798252  0.63208593  0.96601201    -0.18500
C2153       C  0.39423858  0.61422413  0.93579411    -0.27900
C2154       C  0.41311625  0.59790719  0.92031107     0.45100
C2155       C  0.50414881  0.63867467  0.96717231     0.06200
O2156       O  0.46049038  0.66506482  0.00130758    -0.56400
H2157       H  0.39326075  0.64434313  0.97830748     0.19200
O2158       O  0.39898091  0.57865500  0.89182714    -0.63100
H2159       H  0.46345950  0.59280506  0.91975840     0.17600
C2160       C  0.51542063  0.61350594  0.97701281     0.29900
C2161       C  0.99951097  0.57638271  0.95305703    -0.24000
C2162       C  0.01898318  0.59380576  0.92329516    -0.23300
C2163       C  0.99998047  0.58547984  0.89274851     0.41300
C2164       C  0.53175291  0.67381119  0.95855594    -0.25700
O2165       O  0.48957959  0.57935184  0.98745103    -0.57600
H2166       H  0.01426430  0.58180263  0.97661129     0.17000
O2167       O  0.01868210  0.60148430  0.86319846    -0.59000
H2168       H  0.52416421  0.69428955  0.95350535     0.15400
H2169       H  0.41955356  0.58897671  0.87453391     0.47300
H2170       H  0.48486204  0.56452308  0.96741461     0.42700
H2171       H  0.02791682  0.58538258  0.85462700     0.46100
H2172       H  0.47624502  0.68888096  0.99025438     0.37600
C2173       C  0.26789927  0.70115345  0.93721222    -0.26700
C2174       C  0.26924182  0.72249093  0.90908150     0.02900
C2175       C  0.30034948  0.73415259  0.88705702     0.31000
C2176       C  0.31902145  0.71384581  0.88502435    -0.18500
C2177       C  0.31106161  0.68606895  0.90910860    -0.27900
C2178       C  0.28837018  0.68276091  0.93720513     0.45100
C2179       C  0.23255605  0.71685790  0.89571101     0.06200
O2180       O  0.31002005  0.76307540  0.86568796    -0.56400
H2181       H  0.33969030  0.71983509  0.86502185     0.19200
O2182       O  0.28646069  0.66191975  0.96485848    -0.63100
H2183       H  0.24781076  0.69445242  0.95759804     0.17600
C2184       C  0.20152354  0.70410311  0.91806405     0.29900
C2185       C  0.16786743  0.67490721  0.90936636    -0.24000
C2186       C  0.16210317  0.66311949  0.87635582    -0.23300
C2187       C  0.18987341  0.68245052  0.85161136     0.41300
C2188       C  0.22523762  0.70891558  0.86138857    -0.25700
O2189       O  0.20563038  0.71700131  0.94977011    -0.57600
H2190       H  0.14662433  0.66098322  0.92892370     0.17000
O2191       O  0.18306912  0.67490575  0.81828579    -0.59000
H2192       H  0.24758748  0.71943219  0.84265373     0.15400
H2193       H  0.25934329  0.64533849  0.96915660     0.47300
H2194       H  0.19323468  0.69594997  0.96564515     0.42700
H2195       H  0.19075268  0.65652939  0.81403516     0.46100
H2196       H  0.32620297  0.78422020  0.87896440     0.37600
C2197       C  0.56873603  0.76775842  0.90462924    -0.26700
C2198       C  0.54788321  0.74293751  0.88063553     0.02900
C2199       C  0.54843504  0.75701036  0.84803747     0.31000
C2200       C  0.55350512  0.79180696  0.84418772    -0.18500
C2201       C  0.03062243  0.81441039  0.87401674    -0.27900
C2202       C  0.99806928  0.80583017  0.89342944     0.45100
C2203       C  0.51021815  0.71492672  0.89300051     0.06200
O2204       O  0.53805746  0.73549443  0.82099874    -0.56400
H2205       H  0.55055473  0.80169836  0.81964030     0.19200
O2206       O  0.98800714  0.83153096  0.90015772    -0.63100
H2207       H  0.57230397  0.75836629  0.92915062     0.17600
C2208       C  0.48761532  0.68496047  0.87423505     0.29900
C2209       C  0.44839492  0.66965397  0.87690641    -0.24000
C2210       C  0.43182997  0.68085852  0.90166515    -0.23300
C2211       C  0.45489965  0.70517388  0.92522554     0.41300
C2212       C  0.49324364  0.72299151  0.91997546    -0.25700
O2213       O  0.50369127  0.67039454  0.85397334    -0.57600
H2214       H  0.43082062  0.64829811  0.86063204     0.17000
O2215       O  0.44032465  0.71100863  0.95403261    -0.59000
H2216       H  0.50930311  0.74362253  0.93743894     0.15400
H2217       H  0.97584027  0.83410606  0.87950122     0.47300
H2218       H  0.50425317  0.65098733  0.86792605     0.42700
H2219       H  0.45140065  0.73738936  0.95512504     0.46100
H2220       H  0.55679897  0.72684312  0.81964825     0.37600
C2221       C  0.20637744  0.57754964  0.89853962    -0.26700
C2222       C  0.19579348  0.55192644  0.92509564     0.02900
C2223       C  0.22108747  0.55705570  0.95119404     0.31000
C2224       C  0.25749958  0.58513881  0.94852137    -0.18500
C2225       C  0.27007366  0.60689472  0.91914921    -0.27900
C2226       C  0.24364390  0.60518587  0.89537817     0.45100
C2227       C  0.16600224  0.99944939  0.95544575     0.06200
O2228       O  0.22874629  0.01097910  0.99423278    -0.56400
H2229       H  0.27740145  0.58718493  0.96759452     0.19200
O2230       O  0.25450192  0.62813657  0.86773640    -0.63100
H2231       H  0.18706849  0.57367700  0.87839097     0.17600
C2232       C  0.14874618  0.97461641  0.98234679     0.29900
C2233       C  0.12776769  0.93838014  0.97585161    -0.24000
C2234       C  0.12663188  0.92666183  0.94312217    -0.23300
C2235       C  0.14418179  0.95169593  0.91629689     0.41300
C2236       C  0.16194931  0.98783801  0.92242062    -0.25700
O2237       O  0.15479996  0.98547657  0.01493202    -0.57600
H2238       H  0.11472316  0.91916142  0.99666063     0.17000
O2239       O  0.14701906  0.94130398  0.88456058    -0.59000
H2240       H  0.17666925  0.00659524  0.90165002     0.15400
H2241       H  0.26319859  0.61701332  0.85074043     0.47300
H2242       H  0.16215956  0.96927840  0.02723831     0.42700
H2243       H  0.16524522  0.93204218  0.88638016     0.46100
H2244       H  0.22516434  0.99348586  0.97681440     0.37600
C2245       C  0.29444871  0.46146443  0.86171384    -0.26700
C2246       C  0.28646414  0.46147406  0.89629285     0.02900
C2247       C  0.25049737  0.90863932  0.91397356     0.31000
C2248       C  0.27962393  0.90071729  0.90869132    -0.18500
C2249       C  0.30080981  0.91142545  0.87838824    -0.27900
C2250       C  0.28973494  0.92776280  0.85277241     0.45100
C2251       C  0.28636935  0.49381334  0.90951610     0.06200
O2252       O  0.22902049  0.89675070  0.94283185    -0.56400
H2253       H  0.28699317  0.88858404  0.92928776     0.19200
O2254       O  0.30672334  0.93582857  0.82143359    -0.63100
H2255       H  0.29356118  0.48081443  0.84429561     0.17600
C2256       C  0.30906375  0.51211025  0.93692530     0.29900
C2257       C  0.31930940  0.54801550  0.94135860    -0.24000
C2258       C  0.31231848  0.56759964  0.91624465    -0.23300
C2259       C  0.28800932  0.54899892  0.89012681     0.41300
C2260       C  0.27267126  0.51200475  0.88885396    -0.25700
O2261       O  0.32498099  0.49684771  0.95735632    -0.57600
H2262       H  0.33584383  0.56121900  0.96287148     0.17000
O2263       O  0.28124859  0.56690604  0.86426074    -0.59000
H2264       H  0.25406776  0.49846460  0.86862715     0.15400
H2265       H  0.29974005  0.91240995  0.81145126     0.47300
H2266       H  0.35011297  0.50406320  0.94703752     0.42700
H2267       H  0.30455461  0.57766419  0.85002026     0.46100
H2268       H  0.20914317  0.87229963  0.93772138     0.37600
C2269       C  0.42374872  0.83904793  0.96217858    -0.26700
C2270       C  0.43360548  0.83024552  0.93126865     0.02900
C2271       C  0.42363898  0.84301300  0.90216735     0.31000
C2272       C  0.39145422  0.84677014  0.90341416    -0.18500
C2273       C  0.37385083  0.84470883  0.93441363    -0.27900
C2274       C  0.39108300  0.84253859  0.96422904     0.45100
C2275       C  0.42815442  0.79311909  0.92970295     0.06200
O2276       O  0.44027026  0.84519706  0.87158790    -0.56400
H2277       H  0.37980858  0.85037555  0.88009206     0.19200
O2278       O  0.37522686  0.84213350  0.99493607    -0.63100
H2279       H  0.43395442  0.83269090  0.98492957     0.17600
C2280       C  0.43927377  0.78156120  0.90102660     0.29900
C2281       C  0.41881239  0.74607959  0.89147101    -0.24000
C2282       C  0.39066242  0.72074494  0.91306188    -0.23300
C2283       C  0.38436555  0.73108339  0.94482544     0.41300
C2284       C  0.40218289  0.76679483  0.95251976    -0.25700
O2285       O  0.47093235  0.80442417  0.88304745    -0.57600
H2286       H  0.42613913  0.73796714  0.86822672     0.17000
O2287       O  0.36115991  0.70641747  0.96882968    -0.59000
H2288       H  0.39367562  0.77348773  0.97586916     0.15400
H2289       H  0.36329693  0.81685304  0.00342039     0.47300
H2290       H  0.49161509  0.80402654  0.89591798     0.42700
H2291       H  0.37463149  0.69356306  0.97695823     0.46100
H2292       H  0.45155659  0.87074108  0.86404526     0.37600
C2293       C  0.45047931  0.53661348  0.79893081    -0.26700
C2294       C  0.44121291  0.56048285  0.78212859     0.02900
C2295       C  0.43783328  0.55959228  0.74684544     0.31000
C2296       C  0.00301167  0.55521696  0.73411588    -0.18500
C2297       C  0.46448418  0.51998473  0.74510494    -0.27900
C2298       C  0.46350694  0.51719545  0.78045294     0.45100
C2299       C  0.45174299  0.59488823  0.79707347     0.06200
O2300       O  0.99664647  0.60768296  0.72667015    -0.56400
H2301       H  0.01297455  0.55841191  0.70825084     0.19200
O2302       O  0.45806449  0.97371685  0.81635703    -0.63100
H2303       H  0.45215147  0.53648776  0.82606346     0.17600
C2304       C  0.42577740  0.60764883  0.79831906     0.29900
C2305       C  0.43824854  0.64398133  0.79160495    -0.24000
C2306       C  0.47646256  0.66755868  0.78255345    -0.23300
C2307       C  0.50258977  0.65488241  0.78524062     0.41300
C2308       C  0.49028829  0.61926682  0.79459931    -0.25700
O2309       O  0.38790526  0.58424281  0.80175995    -0.57600
H2310       H  0.41704374  0.65252978  0.78998668     0.17000
O2311       O  0.04306146  0.69937616  0.80767491    -0.59000
H2312       H  0.03549202  0.63477003  0.80647349     0.15400
H2313       H  0.48574672  0.98892297  0.81723565     0.47300
H2314       H  0.37789089  0.58173141  0.77873781     0.42700
H2315       H  0.04736706  0.69559552  0.83159413     0.46100
H2316       H  0.97126134  0.60565858  0.72507564     0.37600
C2317       C  0.06179898  0.89419396  0.69543054    -0.26700
C2318       C  0.03966579  0.87932623  0.66727757     0.02900
C2319       C  0.51796411  0.89201621  0.65231272     0.31000
C2320       C  0.51411631  0.91571197  0.67328780    -0.18500
C2321       C  0.04242379  0.93963715  0.69487552    -0.27900
C2322       C  0.06117972  0.92284004  0.71071774     0.45100
C2323       C  0.01998496  0.83995102  0.66661636     0.06200
O2324       O  0.49725030  0.88135529  0.62380741    -0.56400
H2325       H  0.49574991  0.92650152  0.66596164     0.19200
O2326       O  0.07148664  0.92846124  0.74360868    -0.63100
H2327       H  0.07262531  0.87903723  0.70952646     0.17600
C2328       C  0.02694469  0.82171705  0.64123310     0.29900
C2329       C  0.02352910  0.78803818  0.64895782    -0.24000
C2330       C  0.01708884  0.77437103  0.68256295    -0.23300
C2331       C  0.00580252  0.79124166  0.70657656     0.41300
C2332       C  0.00362494  0.82179453  0.69722377    -0.25700
O2333       O  0.04128643  0.83806650  0.61043571    -0.57600
H2334       H  0.03259093  0.77603225  0.63004446     0.17000
O2335       O  0.51087709  0.78418535  0.73757507    -0.59000
H2336       H  0.49402651  0.83010896  0.71299089     0.15400
H2337       H  0.09857825  0.93505387  0.74373183     0.47300
H2338       H  0.06855793  0.85402043  0.61381210     0.42700
H2339       H  0.53752588  0.80106104  0.74260916     0.46100
H2340       H  0.51437378  0.89715675  0.60548192     0.37600
C2341       C  0.36910141  0.73822519  0.78510439    -0.26700
C2342       C  0.37560479  0.77350829  0.78454493     0.02900
C2343       C  0.34645714  0.78068709  0.79381657     0.31000
C2344       C  0.30982218  0.75257794  0.79702560    -0.18500
C2345       C  0.30196450  0.71779873  0.78982375    -0.27900
C2346       C  0.33216877  0.71002535  0.78765946     0.45100
C2347       C  0.40895924  0.80203304  0.76723460     0.06200
O2348       O  0.35269366  0.81527989  0.79526592    -0.56400
H2349       H  0.28727825  0.75873426  0.80147057     0.19200
O2350       O  0.32569958  0.67582281  0.78242269    -0.63100
H2351       H  0.39200638  0.73271573  0.78041128     0.17600
C2352       C  0.44025842  0.82489623  0.78555285     0.29900
C2353       C  0.46317991  0.85998267  0.77343803    -0.24000
C2354       C  0.45567373  0.87153017  0.74239408    -0.23300
C2355       C  0.42899924  0.84623368  0.72125242     0.41300
C2356       C  0.40504421  0.81169876  0.73412015    -0.25700
O2357       O  0.44613388  0.81430811  0.81667036    -0.57600
H2358       H  0.48475458  0.87893267  0.78942695     0.17000
O2359       O  0.42420957  0.85564797  0.68919405    -0.59000
H2360       H  0.38141612  0.79354849  0.71940008     0.15400
H2361       H  0.32930444  0.66685036  0.80460720     0.47300
H2362       H  0.45583139  0.79731526  0.81239370     0.42700
H2363       H  0.43719832  0.84640586  0.67442876     0.46100
H2364       H  0.36043011  0.82231552  0.81865848     0.37600
C2365       C  0.19456552  0.65838338  0.66534720    -0.26700
C2366       C  0.16464367  0.66060698  0.68107924     0.02900
C2367       C  0.16701683  0.69438472  0.68488773     0.31000
C2368       C  0.20128567  0.72511682  0.67770192    -0.18500
C2369       C  0.23334080  0.72172639  0.66965934    -0.27900
C2370       C  0.22852804  0.68937215  0.65786372     0.45100
C2371       C  0.13355355  0.62785029  0.69648302     0.06200
O2372       O  0.13826370  0.69772217  0.69996525    -0.56400
H2373       H  0.20462170  0.75065942  0.68558588     0.19200
O2374       O  0.25965297  0.68751854  0.64658168    -0.63100
H2375       H  0.19336523  0.63267160  0.66236678     0.17600
C2376       C  0.11596073  0.59691745  0.67770242     0.29900
C2377       C  0.08988848  0.56479904  0.69304205    -0.24000
C2378       C  0.08292052  0.56236521  0.72775516    -0.23300
C2379       C  0.09973145  0.59316268  0.74690850     0.41300
C2380       C  0.12486265  0.62602661  0.73108330    -0.25700
O2381       O  0.12573761  0.59756963  0.64462480    -0.57600
H2382       H  0.07715193  0.54093346  0.67822946     0.17000
O2383       O  0.09370507  0.59092705  0.78103938    -0.59000
H2384       H  0.13925506  0.64952586  0.74612313     0.15400
H2385       H  0.25163251  0.66283968  0.63920775     0.47300
H2386       H  0.14052778  0.58454811  0.64436056     0.42700
H2387       H  0.07321741  0.59708732  0.78446770     0.46100
H2388       H  0.11553769  0.68347488  0.68661292     0.37600
C2389       C  0.11696475  0.99531072  0.78976900    -0.26700
C2390       C  0.14760630  0.00661738  0.76739204     0.02900
C2391       C  0.14438974  0.01519770  0.73338933     0.31000
C2392       C  0.11015057  0.01156741  0.72224319    -0.18500
C2393       C  0.07907676  0.99800156  0.74431958    -0.27900
C2394       C  0.08248877  0.98974861  0.77819235     0.45100
C2395       C  0.18114647  0.00543715  0.77930430     0.06200
O2396       O  0.17312177  0.02354590  0.71038852    -0.56400
H2397       H  0.10708690  0.01701212  0.69602977     0.19200
O2398       O  0.09112353  0.51302752  0.80914853    -0.63100
H2399       H  0.15797739  0.52789661  0.82934938     0.17600
C2400       C  0.21730927  0.03454394  0.77339677     0.29900
C2401       C  0.24851250  0.03053731  0.78099994    -0.24000
C2402       C  0.24411327  0.99689111  0.79165695    -0.23300
C2403       C  0.20830115  0.96938411  0.80155409     0.41300
C2404       C  0.17686625  0.97380029  0.79528887    -0.25700
O2405       O  0.26487866  0.58538223  0.77704140    -0.57600
H2406       H  0.30735006  0.55562587  0.77857205     0.17000
O2407       O  0.20355595  0.93673590  0.81299918    -0.59000
H2408       H  0.14901203  0.95132775  0.80029300     0.15400
H2409       H  0.07940555  0.48679534  0.81383688     0.47300
H2410       H  0.27322098  0.60032794  0.79709283     0.42700
H2411       H  0.18733392  0.93009811  0.83351437     0.46100
H2412       H  0.18054253  0.04815969  0.70163343     0.37600
C2413       C  0.34610137  0.89445207  0.72780215    -0.26700
C2414       C  0.34738272  0.90265123  0.69305425     0.02900
C2415       C  0.38038415  0.91205053  0.67419812     0.31000
C2416       C  0.41256304  0.91679141  0.69055319    -0.18500
C2417       C  0.41215838  0.91135190  0.72552322    -0.27900
C2418       C  0.37847331  0.89883044  0.74414009     0.45100
C2419       C  0.31769620  0.90935132  0.67908179     0.06200
O2420       O  0.38256956  0.92048006  0.64047039    -0.56400
H2421       H  0.43875642  0.92736906  0.67618737     0.19200
O2422       O  0.37772106  0.89338378  0.77834350    -0.63100
H2423       H  0.32103598  0.88781590  0.74283772     0.17600
C2424       C  0.27966023  0.88456338  0.68504133     0.29900
C2425       C  0.25314914  0.89643792  0.68462417    -0.24000
C2426       C  0.26404422  0.93282043  0.67804593    -0.23300
C2427       C  0.30060654  0.95577992  0.66565324     0.41300
C2428       C  0.32761186  0.94420003  0.66693845    -0.25700
O2429       O  0.26881120  0.84970019  0.69467125    -0.57600
H2430       H  0.22522155  0.87822144  0.69467444     0.17000
O2431       O  0.31138936  0.99086086  0.65713917    -0.59000
H2432       H  0.35689626  0.96367432  0.66193936     0.15400
H2433       H  0.37824568  0.91481008  0.78812750     0.47300
H2434       H  0.25922428  0.84670232  0.71820645     0.42700
H2435       H  0.32125139  0.99464262  0.63365763     0.46100
H2436       H  0.38465345  0.90101809  0.62912869     0.37600
C2437       C  0.22323673  0.70402632  0.50755504    -0.26700
C2438       C  0.23876604  0.69660666  0.53629170     0.02900
C2439       C  0.21289541  0.68065658  0.56353106     0.31000
C2440       C  0.18756077  0.69331208  0.56979269    -0.18500
C2441       C  0.18198303  0.71387777  0.54478923    -0.27900
C2442       C  0.19640752  0.71548939  0.51207557     0.45100
C2443       C  0.27892327  0.72311873  0.54500676     0.06200
O2444       O  0.21607015  0.65763377  0.58634251    -0.52500
H2445       H  0.17526817  0.68953640  0.59469026     0.19200
O2446       O  0.18946310  0.73321950  0.48605027    -0.63100
H2447       H  0.23645563  0.70759617  0.48303172     0.17600
C2448       C  0.30114399  0.75555707  0.52600350     0.29900
C2449       C  0.33452742  0.78244926  0.53883984    -0.24000
C2450       C  0.34564248  0.77922512  0.57139201    -0.23300
C2451       C  0.32320395  0.74854144  0.59106390     0.41300
C2452       C  0.29279133  0.71968671  0.57653159    -0.25700
O2453       O  0.29101671  0.76189343  0.49493249    -0.57600
H2454       H  0.35205671  0.80603864  0.52315928     0.17000
O2455       O  0.33237694  0.74543839  0.62361657    -0.59000
H2456       H  0.28016006  0.69452015  0.59009938     0.15400
H2457       H  0.16172897  0.72326311  0.48562112     0.47300
H2458       H  0.30886040  0.73534756  0.99508406     0.42700
H2459       H  0.32435453  0.76021495  0.63667077     0.46100
H2460       H  0.19086908  0.63604528  0.58796365     0.37600
C2461       C  0.01615913  0.82329434  0.49497260    -0.26700
C2462       C  0.02429376  0.79557726  0.50270067     0.02900
C2463       C  0.99486160  0.76053564  0.50897013     0.31000
C2464       C  0.47143776  0.76300754  0.50687659    -0.18500
C2465       C  0.46204021  0.79036142  0.50121919    -0.27900
C2466       C  0.48677371  0.82111174  0.48211311     0.45100
C2467       C  0.06296844  0.80416114  0.50952988     0.06200
O2468       O  0.00205646  0.73296925  0.51733233    -0.56400
H2469       H  0.45153700  0.73801810  0.51950729     0.19200
O2470       O  0.47629664  0.84622393  0.47276835    -0.63100
H2471       H  0.03894556  0.85006436  0.48997599     0.17600
C2472       C  0.07885863  0.78462918  0.49501908     0.29900
C2473       C  0.10938962  0.78420945  0.51024447    -0.24000
C2474       C  0.12204178  0.80089254  0.54093791    -0.23300
C2475       C  0.10894996  0.82336602  0.55339351     0.41300
C2476       C  0.08020583  0.82599453  0.53681056    -0.25700
O2477       O  0.06176749  0.76239365  0.46895171    -0.57600
H2478       H  0.11979816  0.76690654  0.50064674     0.17000
O2479       O  0.12026746  0.83863306  0.58390647    -0.59000
H2480       H  0.06797492  0.84109227  0.54797687     0.15400
H2481       H  0.48450834  0.85335625  0.44903015     0.47300
H2482       H  0.08088960  0.77029768  0.45046714     0.42700
H2483       H  0.10442569  0.81971493  0.60087359     0.46100
H2484       H  0.99093347  0.71553319  0.49933356     0.37600
C2485       C  0.29583011  0.82714546  0.56762007    -0.26700
C2486       C  0.30627850  0.85093295  0.53937384     0.02900
C2487       C  0.28254169  0.84014421  0.51114546     0.31000
C2488       C  0.24673720  0.81049550  0.51415051    -0.18500
C2489       C  0.23376665  0.79179611  0.54498057    -0.27900
C2490       C  0.25932886  0.79809545  0.57087615     0.45100
C2491       C  0.33525237  0.88941771  0.54253518     0.06200
O2492       O  0.29187030  0.86021359  0.48164585    -0.56400
H2493       H  0.22728818  0.80528942  0.49379532     0.19200
O2494       O  0.24773129  0.77848325  0.60063208    -0.63100
H2495       H  0.31440548  0.83320775  0.58873060     0.17600
C2496       C  0.33590748  0.90796611  0.57184668     0.29900
C2497       C  0.35462806  0.94539550  0.57126391    -0.24000
C2498       C  0.36945575  0.96495427  0.54110296    -0.23300
C2499       C  0.36935707  0.94686556  0.51205675     0.41300
C2500       C  0.35579581  0.90976728  0.51391569    -0.25700
O2501       O  0.31512378  0.89016942  0.60017809    -0.57600
H2502       H  0.35333752  0.95900489  0.59347637     0.17000
O2503       O  0.38268317  0.96529634  0.48190100    -0.59000
H2504       H  0.35769197  0.89664056  0.49163941     0.15400
H2505       H  0.23876279  0.79165436  0.61502876     0.47300
H2506       H  0.29087958  0.89051723  0.59804542     0.42700
H2507       H  0.40424260  0.47135751  0.47222582     0.46100
H2508       H  0.28707648  0.88053693  0.48575720     0.37600
C2509       C  0.97518456  0.63000622  0.64778390    -0.26700
C2510       C  0.98568084  0.65338341  0.61933368     0.02900
C2511       C  0.97840966  0.63885636  0.58693751     0.31000
C2512       C  0.96630532  0.60277253  0.58357530    -0.18500
C2513       C  0.95807248  0.57987911  0.61180123    -0.27900
C2514       C  0.96122822  0.59323711  0.64409784     0.45100
C2515       C  0.01477706  0.69102785  0.62252540     0.06200
O2516       O  0.98807342  0.66005618  0.55809603    -0.56400
H2517       H  0.96462093  0.59291658  0.55848281     0.19200
O2518       O  0.44978797  0.58141717  0.66255168    -0.63100
H2519       H  0.98078244  0.64071867  0.67270651     0.17600
C2520       C  0.01690618  0.71705090  0.59884628     0.29900
C2521       C  0.05165466  0.73942872  0.58301030    -0.24000
C2522       C  0.08431325  0.73963919  0.59476521    -0.23300
C2523       C  0.08271012  0.72260095  0.62578627     0.41300
C2524       C  0.04784218  0.69666562  0.63866311    -0.25700
O2525       O  0.98467160  0.71551468  0.58630956    -0.57600
H2526       H  0.05218621  0.75375443  0.56029707     0.17000
O2527       O  0.11510212  0.72753673  0.64114344    -0.59000
H2528       H  0.04723614  0.67854336  0.65860281     0.15400
H2529       H  0.42187521  0.56950659  0.66395957     0.47300
H2530       H  0.97817673  0.72984829  0.60157519     0.42700
H2531       H  0.13153373  0.75382726  0.64237538     0.46100
H2532       H  0.96382023  0.65582316  0.54834978     0.37600
C2533       C  0.09355309  0.60231018  0.52674396    -0.26700
C2534       C  0.07380795  0.59176452  0.55789256     0.02900
C2535       C  0.08187788  0.57004017  0.57980390     0.31000
C2536       C  0.11499331  0.56813060  0.57438343    -0.18500
C2537       C  0.13449395  0.57847405  0.54335507    -0.27900
C2538       C  0.12152278  0.59359802  0.51842702     0.45100
C2539       C  0.05687661  0.61356965  0.57112024     0.06200
O2540       O  0.06059124  0.55472711  0.60854809    -0.56400
H2541       H  0.12557226  0.55870682  0.59473978     0.19200
O2542       O  0.13845728  0.60341960  0.48712463    -0.63100
H2543       H  0.09044659  0.62066024  0.50993312     0.17600
C2544       C  0.07365100  0.63136754  0.60058744     0.29900
C2545       C  0.10116589  0.66704925  0.59746560    -0.24000
C2546       C  0.10288850  0.68724235  0.56847460    -0.23300
C2547       C  0.07383163  0.67152645  0.54496936     0.41300
C2548       C  0.04964265  0.63435500  0.54714888    -0.25700
O2549       O  0.06744265  0.61345731  0.63097888    -0.57600
H2550       H  0.11980301  0.67893120  0.61811499     0.17000
O2551       O  0.06936835  0.69175897  0.51979593    -0.59000
H2552       H  0.03112577  0.62158061  0.52654071     0.15400
H2553       H  0.12079914  0.58500144  0.47195286     0.47300
H2554       H  0.04455557  0.61301031  0.64061188     0.42700
H2555       H  0.09056473  0.69821358  0.50365657     0.46100
H2556       H  0.05436094  0.52915549  0.60886314     0.37600
C2557       C  0.16453317  0.92228014  0.60870288    -0.26700
C2558       C  0.20053388  0.93197075  0.59607787     0.02900
C2559       C  0.22538769  0.96821753  0.58824566     0.31000
C2560       C  0.21321365  0.99384100  0.59189744    -0.18500
C2561       C  0.17668034  0.98426367  0.60401858    -0.27900
C2562       C  0.15255340  0.94750737  0.61295027     0.45100
C2563       C  0.20903959  0.90298195  0.58741822     0.06200
O2564       O  0.26065841  0.97843708  0.57500644    -0.56400
H2565       H  0.23198395  0.02061942  0.58314827     0.19200
O2566       O  0.11580894  0.93479557  0.62308309    -0.63100
H2567       H  0.14456927  0.89452908  0.61435515     0.17600
C2568       C  0.20234559  0.87524542  0.61108330     0.29900
C2569       C  0.20203336  0.84406888  0.60088590    -0.24000
C2570       C  0.20198497  0.83750981  0.56666917    -0.23300
C2571       C  0.20999168  0.86534629  0.54290285     0.41300
C2572       C  0.21496097  0.89849383  0.55350371    -0.25700
O2573       O  0.19078498  0.87619029  0.64324279    -0.57600
H2574       H  0.19438613  0.82227134  0.61929117     0.17000
O2575       O  0.20730294  0.85858018  0.50935454    -0.59000
H2576       H  0.21841378  0.91884626  0.53472484     0.15400
H2577       H  0.11599187  0.93173892  0.64783402     0.47300
H2578       H  0.16400406  0.85729042  0.64526562     0.42700
H2579       H  0.23191293  0.87647620  0.49951213     0.46100
H2580       H  0.27857307  0.99435103  0.59167139     0.37600
N2581       N  0.65603795  0.01452097  0.07374640    -0.02500
C2582       C  0.66398177  0.51498848  0.10587709     0.00100
C2583       C  0.63137026  0.50710043  0.12411090    -0.22800
C2584       C  0.60324940  0.49810152  0.10130055    -0.23000
C2585       C  0.62031098  0.50618262  0.06984691     0.00000
H2586       H  0.62657689  0.50115979  0.15087002     0.13700
H2587       H  0.57334079  0.48585682  0.10704559     0.13800
N2588       N  0.67960552  0.05251212  0.06820216    -0.02500
C2589       C  0.66802302  0.07211443  0.04917335     0.00100
C2590       C  0.69792793  0.10008335  0.03223156    -0.22800
C2591       C  0.72937054  0.09920161  0.04214534    -0.23000
C2592       C  0.71878948  0.07163794  0.06620826     0.00000
H2593       H  0.69810887  0.12208899  0.01785498     0.13700
H2594       H  0.75760352  0.12061385  0.03630745     0.13800
N2595       N  0.93174070  0.03544784  0.06827808    -0.02500
C2596       C  0.94362629  0.04475353  0.10011586     0.00100
C2597       C  0.93893321  0.01442951  0.11800725    -0.22800
C2598       C  0.93513605  0.98974772  0.09466278    -0.23000
C2599       C  0.93500183  0.00473194  0.06350490     0.00000
H2600       H  0.48623818  0.03898166  0.15218284     0.13700
H2601       H  0.94035158  0.96735230  0.09941750     0.13800
N2602       N  0.90019735  0.03948907  0.05649145    -0.02500
C2603       C  0.88088025  0.02215153  0.02863310     0.00100
C2604       C  0.86750953  0.04154494  0.01127760    -0.22800
C2605       C  0.87813634  0.07197319  0.02837570    -0.23000
C2606       C  0.89517635  0.06985960  0.05815692     0.00000
H2607       H  0.84956679  0.03338296  0.98970396     0.13700
H2608       H  0.86858240  0.09110335  0.02175864     0.13800
N2609       N  0.90039517  0.27359804  0.04829474    -0.02500
C2610       C  0.90121186  0.26764714  0.01505093     0.00100
C2611       C  0.86549159  0.24412664  0.00451048    -0.22800
C2612       C  0.84564955  0.22640932  0.03296333    -0.23000
C2613       C  0.86890494  0.24173289  0.05988885     0.00000
H2614       H  0.85877416  0.23261738  0.97997043     0.13700
H2615       H  0.82052301  0.20044379  0.03321966     0.13800
N2616       N  0.90404932  0.30843043  0.05499617    -0.02500
C2617       C  0.87814768  0.31100473  0.07459702     0.00100
C2618       C  0.89412520  0.34073072  0.09356557    -0.22800
C2619       C  0.93127165  0.35895238  0.08329664    -0.23000
C2620       C  0.93680761  0.34137523  0.05635479     0.00000
H2621       H  0.87970967  0.35017514  0.11006042     0.13700
H2622       H  0.94974209  0.38658058  0.08952588     0.13800
C2623       C  0.66946106  0.30223799  0.05558050     0.03200
C2624       C  0.63147989  0.28874502  0.06361411     0.03200
C2625       C  0.61158818  0.25458738  0.07825249     0.03200
C2626       C  0.62462696  0.22990957  0.07270872     0.03200
C2627       C  0.66101007  0.24192660  0.05833346     0.03200
C2628       C  0.68468004  0.27906641  0.05232883     0.03200
O2629       O  0.92140307  0.15231509  0.18652241    -0.77500
C2630       C  0.80592461  0.03954126  0.20590828     0.83500
O2631       O  0.86851748  0.10535179  0.07881633    -0.78700
O2632       O  0.74139065  0.07266105  0.12453087    -0.80100
O2633       O  0.80949908  0.18191639  0.19116621    -0.79900
O2634       O  0.90524635  0.19602749  0.18637381    -0.78600
Zn2635     Zn  0.87307908  0.10702022  0.16193382     1.55700
O2636       O  0.76454397  0.12433312  0.19377912    -0.80000
Cd2637     Cd  0.85368631  0.17973981  0.16066705     1.59700
Cd2638     Cd  0.83827403  0.12944804  0.09814970     1.59600
O2639       O  0.86653705  0.21867273  0.11852112    -0.79900
O2640       O  0.83692448  0.12651062  0.14834230    -1.90500
Cd2641     Cd  0.78144008  0.09151336  0.16575560     1.59900
O2642       O  0.85823282  0.18244403  0.07672699    -0.79900
O2643       O  0.77902603  0.04625929  0.19742019    -0.78600
C2644       C  0.88518009  0.08739682  0.08772839     0.84000
C2645       C  0.92856321  0.18450882  0.19420979     0.83600
O2646       O  0.84000643  0.06096705  0.19489328    -0.77500
C2647       C  0.77639551  0.15741935  0.20111964     0.84400
O2648       O  0.88976554  0.08398846  0.11940026    -0.77600
C2649       C  0.86650212  0.21382770  0.08680329     0.84600
C2650       C  0.74858400  0.08019278  0.09289600     0.84900
O2651       O  0.78274909  0.09948439  0.08228911    -0.80000
N2652       N  0.74844788  0.44888194  0.23452050    -0.02500
C2653       C  0.73869716  0.44494865  0.20193165     0.00100
C2654       C  0.70008205  0.43065802  0.20015300    -0.22800
C2655       C  0.68555973  0.41773957  0.23173675    -0.23000
C2656       C  0.71585114  0.42308079  0.25138988     0.00000
H2657       H  0.68364046  0.42201006  0.17796037     0.13700
H2658       H  0.65632779  0.39805811  0.23654436     0.13800
N2659       N  0.76738343  0.48582889  0.24410557    -0.02500
C2660       C  0.76875472  0.49294967  0.27715923     0.00100
C2661       C  0.81508979  0.00188469  0.28282893    -0.22800
C2662       C  0.82979741  0.01658964  0.25176479    -0.23000
C2663       C  0.80023842  0.00780017  0.23026439     0.00000
H2664       H  0.82996480  0.01156295  0.30602425     0.13700
H2665       H  0.85770081  0.03852314  0.24775844     0.13800
N2666       N  0.74561377  0.22179084  0.22515281    -0.02500
C2667       C  0.74314645  0.22579889  0.19157903     0.00100
C2668       C  0.76173464  0.26173985  0.18238375    -0.22800
C2669       C  0.77145068  0.28017492  0.21166358    -0.23000
C2670       C  0.75569175  0.25511606  0.23795584     0.00000
H2671       H  0.76103806  0.27329212  0.15806387     0.13700
H2672       H  0.78052787  0.30842665  0.21309564     0.13800
N2673       N  0.75967969  0.19836795  0.23729624    -0.02500
C2674       C  0.75812113  0.19207120  0.27078729     0.00100
C2675       C  0.73639939  0.15577437  0.27775371    -0.22800
C2676       C  0.73046271  0.13903979  0.24786421    -0.23000
C2677       C  0.75054500  0.16559998  0.22369197     0.00000
H2678       H  0.73186207  0.14208031  0.30166739     0.13700
H2679       H  0.72138437  0.11074897  0.24601764     0.13800
N2680       N  0.52575628  0.23014743  0.23411405    -0.02500
C2681       C  0.53311332  0.25410383  0.20806337     0.00100
C2682       C  0.56706509  0.26254238  0.19280043    -0.22800
C2683       C  0.58221908  0.24513686  0.21061150    -0.23000
C2684       C  0.55975455  0.23006413  0.23891689     0.00000
H2685       H  0.58259690  0.28377168  0.17418075     0.13700
H2686       H  0.61170293  0.25211274  0.20809682     0.13800
N2687       N  0.99076121  0.20444734  0.22899432    -0.02500
C2688       C  0.98773991  0.20823572  0.26236467     0.00100
C2689       C  0.97141112  0.22987776  0.26726991    -0.22800
C2690       C  0.95489803  0.23064098  0.23751028    -0.23000
C2691       C  0.96228630  0.20995529  0.21547941     0.00000
H2692       H  0.96314486  0.23550488  0.29129413     0.13700
H2693       H  0.93346888  0.23869087  0.23487004     0.13800
C2694       C  0.52190689  0.46675009  0.25952491     0.03200
C2695       C  0.96330541  0.40137276  0.21295451     0.03200
C2696       C  0.94118775  0.41780634  0.21872548     0.03200
C2697       C  0.95814818  0.45364591  0.22797403     0.03200
C2698       C  0.51690955  0.52116113  0.26265503     0.03200
C2699       C  0.53868315  0.50340638  0.26540434     0.03200
N2700       N  0.83439494  0.35610496  0.39586889    -0.02500
C2701       C  0.84776690  0.33875108  0.41614349     0.00100
C2702       C  0.81955237  0.31619588  0.43867734    -0.22800
C2703       C  0.78667030  0.31419652  0.42767137    -0.23000
C2704       C  0.79572367  0.33694777  0.39962670     0.00000
H2705       H  0.82083426  0.29652938  0.45563070     0.13700
H2706       H  0.75871919  0.29445134  0.43643813     0.13800
N2707       N  0.85560868  0.39420977  0.39038517    -0.02500
C2708       C  0.84332225  0.41382408  0.37185328     0.00100
C2709       C  0.87371377  0.44470581  0.35875202    -0.22800
C2710       C  0.90542164  0.44545026  0.37103151    -0.23000
C2711       C  0.89423798  0.41546829  0.39198263     0.00000
H2712       H  0.87317737  0.46731783  0.34617631     0.13700
H2713       H  0.93338324  0.46840937  0.36891809     0.13800
N2714       N  0.59962473  0.36952436  0.41119417    -0.02500
C2715       C  0.61107590  0.38789724  0.43987354     0.00100
C2716       C  0.63267832  0.37700802  0.45828615    -0.22800
C2717       C  0.63700849  0.35295609  0.43976478    -0.23000
C2718       C  0.61822140  0.34926460  0.41001937     0.00000
H2719       H  0.64786388  0.38880064  0.48084653     0.13700
H2720       H  0.65511274  0.34166453  0.44616662     0.13800
N2721       N  0.56641888  0.36384817  0.39392912    -0.02500
C2722       C  0.54942709  0.33717825  0.37166966     0.00100
C2723       C  0.52426021  0.34313814  0.35307741    -0.22800
C2724       C  0.52287828  0.37196255  0.36641406    -0.23000
C2725       C  0.54707342  0.38359697  0.39334170     0.00000
H2726       H  0.99918595  0.31804022  0.33761849     0.13700
H2727       H  0.50217094  0.38023367  0.36000178     0.13800
N2728       N  0.59254196  0.11673550  0.39018070    -0.02500
C2729       C  0.60860748  0.12635774  0.35904495     0.00100
C2730       C  0.58490837  0.10228933  0.33663124    -0.22800
C2731       C  0.55977727  0.07270167  0.35519807    -0.23000
C2732       C  0.56673573  0.08044302  0.38864377     0.00000
H2733       H  0.58997307  0.10357992  0.31000516     0.13700
H2734       H  0.54144228  0.04701746  0.34547351     0.13800
N2735       N  0.58545880  0.14222653  0.40718426    -0.02500
C2736       C  0.55621175  0.13281214  0.42920146     0.00100
C2737       C  0.55852439  0.16234858  0.44435542    -0.22800
C2738       C  0.58924729  0.19145812  0.43039958    -0.23000
C2739       C  0.60480796  0.17956490  0.40585506     0.00000
H2740       H  0.53693750  0.16325862  0.45983313     0.13700
H2741       H  0.59597193  0.21897339  0.43436399     0.13800
C2742       C  0.85829567  0.14226336  0.43764666     0.03200
C2743       C  0.86975505  0.11611244  0.44035592     0.03200
C2744       C  0.84223927  0.07993134  0.44211900     0.03200
C2745       C  0.80436583  0.07029882  0.44822619     0.03200
C2746       C  0.79486758  0.09728405  0.45582725     0.03200
C2747       C  0.82023115  0.13293697  0.44462403     0.03200
O2748       O  0.58713849  0.46602754  0.02422673    -0.77500
C2749       C  0.95458368  0.36944829  0.02723653     0.83500
O2750       O  0.52810080  0.42739897  0.40685512    -0.78700
O2751       O  0.91337165  0.41438197  0.45063196    -0.80100
O2752       O  0.49600198  0.01212497  0.03702085    -0.79900
O2753       O  0.57633469  0.51184006  0.03224398    -0.78600
Zn2754     Zn  0.52600326  0.42554092  0.49480133     1.55700
O2755       O  0.93737707  0.46502239  0.02288287    -0.80000
Cd2756     Cd  0.53278532  0.50707020  0.99956998     1.59700
Cd2757     Cd  0.50282792  0.45674766  0.42669614     1.59600
O2758       O  0.55873956  0.05317412  0.44698294    -0.79900
O2759       O  0.50087452  0.45434130  0.47779390    -1.90500
Cd2760     Cd  0.94830283  0.43276506  0.98775731     1.59900
O2761       O  0.52901035  0.51055827  0.40791544    -0.79900
O2762       O  0.93516186  0.38382267  0.01551910    -0.78600
C2763       C  0.54009536  0.40660071  0.41907847     0.84000
C2764       C  0.59525337  0.49539993  0.03886342     0.83600
O2765       O  0.99019700  0.38382338  0.01971952    -0.77500
C2766       C  0.95484101  0.99650510  0.03448016     0.84400
O2767       O  0.54093268  0.40284636  0.45139953    -0.77600
C2768       C  0.55461998  0.04910209  0.41499941     0.84600
C2769       C  0.92174938  0.41860049  0.41889093     0.84900
O2770       O  0.95595004  0.43133840  0.40857479    -0.80000
O2771       O  0.67520482  0.36602856  0.28057443    -0.77500
C2772       C  0.58679519  0.24609855  0.26790919     0.83500
O2773       O  0.64921620  0.31796975  0.39014779    -0.78700
O2774       O  0.62788244  0.20319315  0.34748397    -0.80100
O2775       O  0.74541994  0.29733779  0.27061745    -0.79900
O2776       O  0.73583406  0.37996860  0.27764196    -0.78600
Zn2777     Zn  0.64130092  0.31693252  0.30768714     1.55700
O2778       O  0.69969881  0.23997102  0.27497758    -0.80000
Cd2779     Cd  0.73138471  0.32986238  0.30274363     1.59700
Cd2780     Cd  0.67653167  0.29205835  0.36961369     1.59600
O2781       O  0.77121234  0.34176541  0.34372828    -0.79900
O2782       O  0.67578828  0.29583443  0.31956811    -1.90500
Cd2783     Cd  0.65481305  0.24294555  0.30530081     1.59900
O2784       O  0.73125317  0.31379929  0.38663899    -0.79900
O2785       O  0.60764100  0.23170185  0.27495023    -0.78600
C2786       C  0.62928794  0.33269224  0.38147736     0.84000
C2787       C  0.70953648  0.38836872  0.27138360     0.83600
O2788       O  0.59501008  0.27735188  0.27898765    -0.77500
C2789       C  0.73241227  0.26400752  0.26332626     0.84400
O2790       O  0.62217307  0.33447977  0.35034727    -0.77600
C2791       C  0.76497571  0.33153973  0.37496292     0.84600
C2792       C  0.62963183  0.20794598  0.37926261     0.84900
O2793       O  0.64842010  0.23970123  0.38988955    -0.80000
C2794       C  0.87786469  0.02115527  0.40659184    -0.26700
C2795       C  0.90660257  0.02902353  0.42989149     0.02900
C2796       C  0.90391769  0.04232059  0.46160568     0.31000
C2797       C  0.87697689  0.05270315  0.46680610    -0.18500
C2798       C  0.85479097  0.05293188  0.44056634    -0.27900
C2799       C  0.85316677  0.03507556  0.41096458     0.45100
C2800       C  0.94464473  0.03903645  0.41680048     0.06200
O2801       O  0.93265970  0.05431699  0.48411397    -0.56400
H2802       H  0.87875035  0.06755951  0.48896540     0.19200
O2803       O  0.83118729  0.03504584  0.38487433    -0.63100
H2804       H  0.87931147  0.01076956  0.38237550     0.17600
C2805       C  0.97024937  0.03717495  0.43915737     0.29900
C2806       C  0.50399358  0.07322191  0.44736385    -0.24000
C2807       C  0.51925465  0.10202347  0.42410462    -0.23300
C2808       C  0.50009480  0.10054982  0.39437216     0.41300
C2809       C  0.95865726  0.06601550  0.39121362    -0.25700
O2810       O  0.95936753  0.00769438  0.46008023    -0.57600
H2811       H  0.51835072  0.07421611  0.47049185     0.17000
O2812       O  0.51500256  0.12836394  0.37099219    -0.59000
H2813       H  0.94016432  0.06780992  0.37259900     0.15400
H2814       H  0.84719560  0.05703509  0.37106810     0.47300
H2815       H  0.96981830  0.99345918  0.44944140     0.42700
H2816       H  0.52671528  0.12068946  0.35335368     0.46100
H2817       H  0.92896931  0.03281852  0.49723629     0.37600
C2818       C  0.77349055  0.18307281  0.40604430    -0.26700
C2819       C  0.76164387  0.16386136  0.37631780     0.02900
C2820       C  0.77842776  0.14356798  0.36581866     0.31000
C2821       C  0.79833752  0.13486784  0.38872429    -0.18500
C2822       C  0.80500994  0.14909051  0.42071871    -0.27900
C2823       C  0.79664991  0.17659627  0.42812402     0.45100
C2824       C  0.72329270  0.15290060  0.36571483     0.06200
O2825       O  0.76881206  0.12596143  0.33627941    -0.56400
H2826       H  0.80694594  0.11524907  0.38215683     0.19200
O2827       O  0.80506072  0.19218179  0.45879436    -0.63100
H2828       H  0.76113748  0.19936290  0.41406898     0.17600
C2829       C  0.69469248  0.11796411  0.37447324     0.29900
C2830       C  0.65742056  0.10962547  0.37138870    -0.24000
C2831       C  0.64809874  0.13429189  0.35622954    -0.23300
C2832       C  0.67672208  0.16570300  0.34075563     0.41300
C2833       C  0.71426852  0.17665307  0.34835090    -0.25700
O2834       O  0.70278766  0.09243239  0.38777629    -0.57600
H2835       H  0.63575134  0.08382067  0.38117251     0.17000
O2836       O  0.66865913  0.18433170  0.31679437    -0.59000
H2837       H  0.73625657  0.20263049  0.33948771     0.15400
H2838       H  0.81860251  0.21838321  0.45374921     0.47300
H2839       H  0.69885898  0.07584552  0.36934120     0.42700
H2840       H  0.66275496  0.16979740  0.29642585     0.46100
H2841       H  0.79288527  0.13144225  0.32481889     0.37600
C2842       C  0.00077651  0.24220889  0.42217270    -0.26700
C2843       C  0.00492435  0.21776139  0.40214635     0.02900
C2844       C  0.02550245  0.23055728  0.37138645     0.31000
C2845       C  0.03777422  0.26611642  0.35987858    -0.18500
C2846       C  0.53901039  0.29942388  0.38111702    -0.27900
C2847       C  0.51892593  0.28499028  0.41131624     0.45100
C2848       C  0.98106889  0.17904039  0.41147233     0.06200
O2849       O  0.03343933  0.20865024  0.35229709    -0.56400
H2850       H  0.05071643  0.27475198  0.33510539     0.19200
O2851       O  0.51210233  0.30613984  0.43222830    -0.63100
H2852       H  0.98465806  0.23368591  0.44556915     0.17600
C2853       C  0.95502439  0.15643931  0.38824192     0.29900
C2854       C  0.91989218  0.12942681  0.39917735    -0.24000
C2855       C  0.90954758  0.12673810  0.43286869    -0.23300
C2856       C  0.93736526  0.14375558  0.45681443     0.41300
C2857       C  0.97384537  0.16872847  0.44583638    -0.25700
O2858       O  0.96057081  0.16415861  0.35473312    -0.57600
H2859       H  0.89865515  0.11557269  0.38065886     0.17000
O2860       O  0.92785663  0.14027458  0.49035458    -0.59000
H2861       H  0.99420972  0.18442952  0.46429455     0.15400
H2862       H  0.48621964  0.30115177  0.42726186     0.47300
H2863       H  0.96034549  0.14261508  0.34585114     0.42700
H2864       H  0.93757676  0.12474686  0.50023031     0.46100
H2865       H  0.05370613  0.20645161  0.36423411     0.37600
C2866       C  0.69222096  0.05853978  0.46982211    -0.26700
C2867       C  0.68824111  0.02743331  0.48633365     0.02900
C2868       C  0.71878629  0.02967378  0.50502113     0.31000
C2869       C  0.75350711  0.06075082  0.50250681    -0.18500
C2870       C  0.75982000  0.08628432  0.47670346    -0.27900
C2871       C  0.72802861  0.08793829  0.46461044     0.45100
C2872       C  0.65446653  0.49609929  0.46166900     0.06200
O2873       O  0.71619697  0.49730955  0.49464664    -0.56400
H2874       H  0.77737519  0.06037123  0.51437693     0.19200
O2875       O  0.73120221  0.11670161  0.44630221    -0.63100
H2876       H  0.66860169  0.05816122  0.45683662     0.17600
C2877       C  0.63804507  0.46905140  0.48703401     0.29900
C2878       C  0.61677395  0.43350455  0.47851242    -0.24000
C2879       C  0.61604664  0.42389234  0.44517142    -0.23300
C2880       C  0.62964300  0.45076058  0.41939054     0.41300
C2881       C  0.64740265  0.48681929  0.42785584    -0.25700
O2882       O  0.64709615  0.47674925  0.52000737    -0.57600
H2883       H  0.60585533  0.41295228  0.49847126     0.17000
O2884       O  0.62898463  0.44232460  0.38629301    -0.59000
H2885       H  0.66054300  0.50714143  0.40797623     0.15400
H2886       H  0.72353842  0.12999285  0.46182167     0.47300
H2887       H  0.65466271  0.45923396  0.52909441     0.42700
H2888       H  0.65276539  0.44153802  0.38218961     0.46100
H2889       H  0.71213563  0.48346445  0.47402104     0.37600
C2890       C  0.78014122  0.95035946  0.36816113    -0.26700
C2891       C  0.76295609  0.93912572  0.40026551     0.02900
C2892       C  0.75762352  0.40624939  0.41735516     0.31000
C2893       C  0.78836801  0.40147387  0.40927367    -0.18500
C2894       C  0.80674335  0.41313430  0.37777560    -0.27900
C2895       C  0.79311054  0.42964953  0.35462466     0.45100
C2896       C  0.75515948  0.96426926  0.42019063     0.06200
O2897       O  0.73688859  0.39059820  0.44617313    -0.56400
H2898       H  0.79857823  0.38997122  0.42826020     0.19200
O2899       O  0.80820851  0.43963919  0.32265243    -0.63100
H2900       H  0.78037868  0.97287235  0.35498442     0.17600
C2901       C  0.76963136  0.97315802  0.45296236     0.29900
C2902       C  0.77825956  0.00642478  0.46540571    -0.24000
C2903       C  0.77544797  0.03211835  0.44491402    -0.23300
C2904       C  0.75445431  0.02124002  0.41549792     0.41300
C2905       C  0.74376675  0.98701635  0.40361489    -0.25700
O2906       O  0.78155393  0.95267309  0.47083963    -0.57600
H2907       H  0.79318517  0.01439637  0.48872383     0.17000
O2908       O  0.74843823  0.04518960  0.39624950    -0.59000
H2909       H  0.73126374  0.98048309  0.37924112     0.15400
H2910       H  0.80137088  0.41692841  0.31128474     0.47300
H2911       H  0.80802706  0.96139038  0.46319706     0.42700
H2912       H  0.76514908  0.05092771  0.37609433     0.46100
H2913       H  0.72278072  0.36468174  0.44155840     0.37600
C2914       C  0.92154245  0.30972568  0.40088956    -0.26700
C2915       C  0.89938190  0.27618652  0.38700958     0.02900
C2916       C  0.86281823  0.26774483  0.37667999     0.31000
C2917       C  0.84880982  0.29149646  0.38208364    -0.18500
C2918       C  0.86901910  0.32216171  0.40102267    -0.27900
C2919       C  0.90557483  0.33081720  0.41077866     0.45100
C2920       C  0.90856327  0.24669798  0.39428937     0.06200
O2921       O  0.83814198  0.23403900  0.36683836    -0.56400
H2922       H  0.81994251  0.28343390  0.37541991     0.19200
O2923       O  0.92430749  0.35689549  0.43329615    -0.63100
H2924       H  0.94962092  0.31719975  0.40842599     0.17600
C2925       C  0.89810250  0.21788632  0.37260428     0.29900
C2926       C  0.88536418  0.18332123  0.38645812    -0.24000
C2927       C  0.88407986  0.17786126  0.42155729    -0.23300
C2928       C  0.90316115  0.20723496  0.44165100     0.41300
C2929       C  0.91637664  0.24172086  0.42774790    -0.25700
O2930       O  0.89597353  0.22239144  0.33860882    -0.57600
H2931       H  0.87335022  0.16067631  0.37018161     0.17000
O2932       O  0.90710698  0.20220640  0.47516468    -0.59000
H2933       H  0.92833197  0.26406001  0.44410861     0.15400
H2934       H  0.91136068  0.34664452  0.45529858     0.47300
H2935       H  0.92201842  0.23948064  0.33087984     0.42700
H2936       H  0.88141953  0.19138746  0.48534783     0.46100
H2937       H  0.84271656  0.23439496  0.34249073     0.37600
C2938       C  0.93065186  0.03999907  0.28840246    -0.26700
C2939       C  0.92740828  0.06654874  0.26984034     0.02900
C2940       C  0.92937826  0.06739881  0.23433502     0.31000
C2941       C  0.45433150  0.00966535  0.24262705    -0.18500
C2942       C  0.94743409  0.02130316  0.23699887    -0.27900
C2943       C  0.94187526  0.01811214  0.27227186     0.45100
C2944       C  0.93885976  0.10036236  0.28585602     0.06200
O2945       O  0.41193384  0.03397843  0.23966568    -0.56400
H2946       H  0.44967770  0.00333315  0.21634677     0.19200
O2947       O  0.95710348  0.46583533  0.29758849    -0.63100
H2948       H  0.92994888  0.03976166  0.31564128     0.17600
C2949       C  0.91568247  0.11633590  0.28605729     0.29900
C2950       C  0.93240150  0.15356558  0.28459470    -0.24000
C2951       C  0.97213658  0.17464699  0.28253146    -0.23300
C2952       C  0.99455360  0.15821649  0.28827486     0.41300
C2953       C  0.97768869  0.12107110  0.29007060    -0.25700
O2954       O  0.87744114  0.09621466  0.28286965    -0.57600
H2955       H  0.91433717  0.16553466  0.28056892     0.17000
O2956       O  0.53712933  0.16706892  0.27712767    -0.59000
H2957       H  0.51594200  0.09987842  0.28725022     0.15400
H2958       H  0.93679687  0.44130481  0.30370558     0.47300
H2959       H  0.86751702  0.08715242  0.30598769     0.42700
H2960       H  0.54741218  0.17243638  0.30007900     0.46100
H2961       H  0.42328684  0.06024387  0.23585048     0.37600
C2962       C  0.55971692  0.40284615  0.25373343    -0.26700
C2963       C  0.54738235  0.39121151  0.22100863     0.02900
C2964       C  0.01682525  0.37697481  0.13613227     0.31000
C2965       C  0.00682323  0.39868372  0.15464478    -0.18500
C2966       C  0.54378162  0.45020405  0.24593650    -0.27900
C2967       C  0.55593970  0.43104624  0.26690268     0.45100
C2968       C  0.53452786  0.35294422  0.21389530     0.06200
O2969       O  0.99630354  0.35967630  0.10903591    -0.56400
H2970       H  0.98377214  0.40283576  0.14616739     0.19200
O2971       O  0.55788773  0.43558889  0.30095386    -0.63100
H2972       H  0.56712634  0.38697087  0.27070460     0.17600
C2973       C  0.54005984  0.34103129  0.18263974     0.29900
C2974       C  0.53033196  0.30503182  0.17937713    -0.24000
C2975       C  0.52135065  0.28210870  0.20806343    -0.23300
C2976       C  0.51330411  0.29330976  0.23861475     0.41300
C2977       C  0.51727364  0.32748193  0.24043745    -0.25700
O2978       O  0.55848953  0.36447130  0.15620352    -0.57600
H2979       H  0.53588240  0.29673281  0.15541532     0.17000
O2980       O  0.03683810  0.28414045  0.22902353    -0.59000
H2981       H  0.02222756  0.33187602  0.20712957     0.15400
H2982       H  0.58402927  0.44185111  0.30693489     0.47300
H2983       H  0.58556576  0.37212637  0.15936460     0.42700
H2984       H  0.06388748  0.30184266  0.23113170     0.46100
H2985       H  0.01141790  0.37433128  0.08925012     0.37600
C2986       C  0.85984204  0.23508136  0.27367331    -0.26700
C2987       C  0.86647367  0.27012461  0.27715370     0.02900
C2988       C  0.83824488  0.27640046  0.29115934     0.31000
C2989       C  0.80214807  0.24764582  0.29716065    -0.18500
C2990       C  0.79381877  0.21310755  0.28795250    -0.27900
C2991       C  0.82379981  0.20627981  0.27962067     0.45100
C2992       C  0.89848792  0.29932970  0.25890211     0.06200
O2993       O  0.84401719  0.31069531  0.29424061    -0.56400
H2994       H  0.77969098  0.25318074  0.30435659     0.19200
O2995       O  0.81661254  0.17270956  0.27041413    -0.63100
H2996       H  0.88150006  0.23014541  0.26312683     0.17600
C2997       C  0.92847298  0.32599573  0.27614556     0.29900
C2998       C  0.95294302  0.35801573  0.25909872    -0.24000
C2999       C  0.94741745  0.36382442  0.22512305    -0.23300
C3000       C  0.91986484  0.33561171  0.20710655     0.41300
C3001       C  0.89550704  0.30341281  0.22410076    -0.25700
O3002       O  0.93168899  0.32257728  0.31018159    -0.57600
H3003       H  0.97375625  0.37972657  0.27329060     0.17000
O3004       O  0.91403686  0.34055033  0.17395089    -0.59000
H3005       H  0.87230767  0.28275632  0.21072820     0.15400
H3006       H  0.83540328  0.16780398  0.28196047     0.47300
H3007       H  0.93907963  0.30359815  0.31312780     0.42700
H3008       H  0.92918399  0.33206460  0.16116958     0.46100
H3009       H  0.85691582  0.31874731  0.31588121     0.37600
C3010       C  0.66414402  0.13859450  0.18178375    -0.26700
C3011       C  0.63754971  0.14489330  0.19882784     0.02900
C3012       C  0.64262810  0.17976271  0.20000493     0.31000
C3013       C  0.67677329  0.20839757  0.18842160    -0.18500
C3014       C  0.70625664  0.20220165  0.17732270    -0.27900
C3015       C  0.69788736  0.16706523  0.16958897     0.45100
C3016       C  0.60771127  0.11501993  0.21844571     0.06200
O3017       O  0.61690035  0.18639645  0.21650041    -0.56400
H3018       H  0.68249550  0.23536096  0.19387669     0.19200
O3019       O  0.72394687  0.15925380  0.15506078    -0.63100
H3020       H  0.65950761  0.11142632  0.17960999     0.17600
C3021       C  0.57122426  0.09557444  0.20626200     0.29900
C3022       C  0.54852938  0.06040062  0.21804201    -0.24000
C3023       C  0.56065449  0.04515157  0.24380905    -0.23300
C3024       C  0.59443823  0.06748728  0.26014284     0.41300
C3025       C  0.61820399  0.10194737  0.24668419    -0.25700
O3026       O  0.55868865  0.10940698  0.18100538    -0.57600
H3027       H  0.52256445  0.04431129  0.20515391     0.17000
O3028       O  0.60339414  0.05655309  0.28989716    -0.59000
H3029       H  0.64566214  0.11798003  0.25741037     0.15400
H3030       H  0.74631368  0.18201542  0.14782008     0.47300
H3031       H  0.54326017  0.11849301  0.19243413     0.42700
H3032       H  0.63090870  0.06485377  0.28904138     0.46100
H3033       H  0.59831022  0.18401092  0.19930772     0.37600
C3034       C  0.62537035  0.52210443  0.31061895    -0.26700
C3035       C  0.64893656  0.52533759  0.28339608     0.02900
C3036       C  0.63869784  0.52961316  0.25043777     0.31000
C3037       C  0.60433520  0.52889148  0.24516327    -0.18500
C3038       C  0.57917125  0.52209946  0.27211666    -0.27900
C3039       C  0.59030763  0.51972374  0.30510006     0.45100
C3040       C  0.68218293  0.52056412  0.28907384     0.06200
O3041       O  0.65946914  0.52936840  0.22308884    -0.56400
H3042       H  0.59522996  0.52846839  0.21962301     0.19200
O3043       O  0.56049080  0.97023681  0.31192372    -0.63100
H3044       H  0.62547108  0.98362639  0.33686758     0.17600
C3045       C  0.71728666  0.54528445  0.27482020     0.29900
C3046       C  0.74690846  0.53754640  0.27556070    -0.24000
C3047       C  0.74168655  0.50441703  0.28872892    -0.23300
C3048       C  0.70734820  0.48054314  0.30483906     0.41300
C3049       C  0.67805672  0.48931076  0.30582917    -0.25700
O3050       O  0.73474188  0.06633205  0.29563258    -0.57600
H3051       H  0.78665571  0.04780555  0.29399472     0.17000
O3052       O  0.70196230  0.44838606  0.31850667    -0.59000
H3053       H  0.65119086  0.47030362  0.31726779     0.15400
H3054       H  0.56391223  0.98374297  0.33272187     0.47300
H3055       H  0.71790381  0.07065361  0.31080945     0.42700
H3056       H  0.67825033  0.42955600  0.30911424     0.46100
H3057       H  0.66773156  0.55264453  0.21081997     0.37600
C3058       C  0.83840561  0.38611466  0.21008101    -0.26700
C3059       C  0.83820369  0.39681984  0.17627423     0.02900
C3060       C  0.87014170  0.40684798  0.15550592     0.31000
C3061       C  0.90262336  0.40898373  0.16933481    -0.18500
C3062       C  0.90391388  0.40248671  0.20392120    -0.27900
C3063       C  0.87133307  0.38944811  0.22411528     0.45100
C3064       C  0.80818618  0.40514062  0.16652909     0.06200
O3065       O  0.87141565  0.41874420  0.12295681    -0.56400
H3066       H  0.92808664  0.41953446  0.15382408     0.19200
O3067       O  0.87241954  0.38292758  0.25794417    -0.63100
H3068       H  0.81427874  0.37889981  0.22665332     0.17600
C3069       C  0.77083586  0.38098422  0.17598793     0.29900
C3070       C  0.74690081  0.39417519  0.18519689    -0.24000
C3071       C  0.75780629  0.43070652  0.18055053    -0.23300
C3072       C  0.79237736  0.45352395  0.16426706     0.41300
C3073       C  0.81802321  0.44095134  0.15823357    -0.25700
O3074       O  0.75940506  0.34531393  0.18142386    -0.57600
H3075       H  0.72051486  0.37607924  0.19803245     0.17000
O3076       O  0.80309732  0.48894050  0.15802745    -0.59000
H3077       H  0.84667451  0.46007665  0.15058225     0.15400
H3078       H  0.87166824  0.40312216  0.26917071     0.47300
H3079       H  0.75164311  0.33462126  0.15912440     0.42700
H3080       H  0.80413046  0.49205663  0.13322269     0.46100
H3081       H  0.86780260  0.39848964  0.10895139     0.37600
C3082       C  0.71419751  0.20688606  0.00984787    -0.26700
C3083       C  0.73165401  0.20104979  0.03802245     0.02900
C3084       C  0.70631524  0.18321591  0.06485158     0.31000
C3085       C  0.68277174  0.19730781  0.07357252    -0.18500
C3086       C  0.67480145  0.21696065  0.04897832    -0.27900
C3087       C  0.68701112  0.21761581  0.01552410     0.45100
C3088       C  0.76928194  0.23180866  0.04776745     0.06200
O3089       O  0.71272486  0.16186592  0.08728198    -0.52500
H3090       H  0.67498272  0.19604039  0.09961120     0.19200
O3091       O  0.67748471  0.23356164  0.98960947    -0.63100
H3092       H  0.72563306  0.20942043  0.98471409     0.17600
C3093       C  0.79313572  0.25941721  0.02437270     0.29900
C3094       C  0.82641767  0.28835821  0.03490740    -0.24000
C3095       C  0.83784578  0.28994574  0.06821840    -0.23300
C3096       C  0.81374562  0.26476572  0.09220721     0.41300
C3097       C  0.78007974  0.23618549  0.08202068    -0.25700
O3098       O  0.78591380  0.25772559  0.99075688    -0.57600
H3099       H  0.84528530  0.30785950  0.01621135     0.17000
O3100       O  0.82474114  0.26537645  0.12484881    -0.59000
H3101       H  0.76293231  0.21754031  0.10159556     0.15400
H3102       H  0.64984209  0.22414972  0.99150893     0.47300
H3103       H  0.80483851  0.25636549  0.50426425     0.42700
H3104       H  0.82482236  0.28666493  0.13448365     0.46100
H3105       H  0.68910411  0.13863865  0.08823638     0.37600
C3106       C  0.50426080  0.31094049  0.98223861    -0.26700
C3107       C  0.51178882  0.28412584  0.99448963     0.02900
C3108       C  0.48225383  0.25101981  0.00634104     0.31000
C3109       C  0.92361612  0.22342940  0.00983695    -0.18500
C3110       C  0.93011018  0.25877453  0.00377703    -0.27900
C3111       C  0.96559147  0.28558984  0.99280602     0.45100
C3112       C  0.54993912  0.29425858  0.00456045     0.06200
O3113       O  0.48956126  0.22587436  0.02182423    -0.56400
H3114       H  0.89649178  0.20245271  0.01896602     0.19200
O3115       O  0.97285126  0.32048985  0.98974034    -0.63100
H3116       H  0.52741235  0.33644911  0.97346518     0.17600
C3117       C  0.56764202  0.27480785  0.99392510     0.29900
C3118       C  0.59836211  0.27754066  0.01121004    -0.24000
C3119       C  0.61041172  0.29823604  0.03991662    -0.23300
C3120       C  0.59526196  0.32038871  0.04877194     0.41300
C3121       C  0.56515700  0.31866766  0.03060720    -0.25700
O3122       O  0.55364064  0.25119169  0.96841682    -0.57600
H3123       H  0.61042329  0.26062945  0.00434961     0.17000
O3124       O  0.60694754  0.34062538  0.07686768    -0.59000
H3125       H  0.55127870  0.33350674  0.03902795     0.15400
H3126       H  0.98595819  0.32999936  0.96777011     0.47300
H3127       H  0.55995025  0.26616757  0.94742249     0.42700
H3128       H  0.59071204  0.32476876  0.09562019     0.46100
H3129       H  0.49033878  0.21072667  0.00378914     0.37600
C3130       C  0.78776903  0.33437445  0.06219850    -0.26700
C3131       C  0.79584126  0.35648513  0.03292874     0.02900
C3132       C  0.77096012  0.34313593  0.00577626     0.31000
C3133       C  0.73593364  0.31263506  0.01065716    -0.18500
C3134       C  0.72506063  0.29530866  0.04234391    -0.27900
C3135       C  0.75223806  0.30419269  0.06721517     0.45100
C3136       C  0.82364639  0.39564092  0.03408706     0.06200
O3137       O  0.77821439  0.36172205  0.97562619    -0.56400
H3138       H  0.71530132  0.30569242  0.99108698     0.19200
O3139       O  0.74297029  0.28599164  0.09772220    -0.63100
H3140       H  0.80736651  0.34264291  0.08269590     0.17600
C3141       C  0.82381487  0.41516760  0.06239470     0.29900
C3142       C  0.84499174  0.45252183  0.06180767    -0.24000
C3143       C  0.86340827  0.47167590  0.03226982    -0.23300
C3144       C  0.86253180  0.45267426  0.00355706     0.41300
C3145       C  0.84483993  0.41503109  0.00526447    -0.25700
O3146       O  0.80088714  0.39835830  0.08992818    -0.57600
H3147       H  0.84383020  0.46676244  0.08358561     0.17000
O3148       O  0.87682880  0.47051788  0.97329842    -0.59000
H3149       H  0.84549218  0.40109922  0.98311690     0.15400
H3150       H  0.73135583  0.29749482  0.11122191     0.47300
H3151       H  0.77673395  0.39800568  0.08499960     0.42700
H3152       H  0.85750985  0.98410377  0.94359933     0.46100
H3153       H  0.77286626  0.38174652  0.97953871     0.37600
C3154       C  0.47620273  0.13240122  0.15623716    -0.26700
C3155       C  0.48513420  0.15578275  0.12790426     0.02900
C3156       C  0.47924753  0.14139826  0.09550957     0.31000
C3157       C  0.46873044  0.10560962  0.09206523    -0.18500
C3158       C  0.45973779  0.08234277  0.11998857    -0.27900
C3159       C  0.46317051  0.09579414  0.15238288     0.45100
C3160       C  0.51147005  0.19432998  0.13119604     0.06200
O3161       O  0.48811567  0.16262331  0.06676191    -0.56400
H3162       H  0.46834238  0.09613982  0.06714970     0.19200
O3163       O  0.96290590  0.11484325  0.12743864    -0.63100
H3164       H  0.48174067  0.14292982  0.18127791     0.17600
C3165       C  0.51100726  0.21935126  0.10761347     0.29900
C3166       C  0.54460869  0.24220676  0.09017295    -0.24000
C3167       C  0.57871647  0.24468129  0.10105988    -0.23300
C3168       C  0.57929482  0.22956543  0.13256720     0.41300
C3169       C  0.54564385  0.20242042  0.14640161    -0.25700
O3170       O  0.47745878  0.21530151  0.09579311    -0.57600
H3171       H  0.54287846  0.25433480  0.06671297     0.17000
O3172       O  0.61288196  0.23654112  0.14683554    -0.59000
H3173       H  0.54696029  0.18512326  0.16620077     0.15400
H3174       H  0.97106325  0.11981476  0.15103961     0.47300
H3175       H  0.46937895  0.22772862  0.11198212     0.42700
H3176       H  0.62812073  0.26302949  0.14745969     0.46100
H3177       H  0.46354075  0.15750991  0.05713169     0.37600
C3178       C  0.59490441  0.10012449  0.03974037    -0.26700
C3179       C  0.57658774  0.09083529  0.07135604     0.02900
C3180       C  0.58214498  0.06708603  0.09284480     0.31000
C3181       C  0.61324153  0.06200903  0.08633531    -0.18500
C3182       C  0.63239452  0.07269693  0.05489449    -0.27900
C3183       C  0.61956132  0.08812628  0.03026938     0.45100
C3184       C  0.56753976  0.11769566  0.08504150     0.06200
O3185       O  0.56345415  0.05610753  0.12340292    -0.56400
H3186       H  0.62298018  0.05093079  0.10630132     0.19200
O3187       O  0.63421787  0.09552379  0.99810302    -0.63100
H3188       H  0.59468534  0.12105537  0.02400363     0.17600
C3189       C  0.59146801  0.13892716  0.11030977     0.29900
C3190       C  0.60534870  0.17557238  0.10864458    -0.24000
C3191       C  0.59916770  0.19163304  0.08024135    -0.23300
C3192       C  0.57023642  0.17068803  0.05849002     0.41300
C3193       C  0.55229181  0.13338159  0.06279002    -0.25700
O3194       O  0.60910933  0.12604167  0.13129741    -0.57600
H3195       H  0.62605843  0.19151113  0.12669405     0.17000
O3196       O  0.56203141  0.18608571  0.03134831    -0.59000
H3197       H  0.53294216  0.11735778  0.04387037     0.15400
H3198       H  0.61977740  0.07281747  0.98627524     0.47300
H3199       H  0.63320899  0.13180819  0.11962800     0.42700
H3200       H  0.57799733  0.18560998  0.01255004     0.46100
H3201       H  0.55188946  0.02959672  0.12427440     0.37600
C3202       C  0.66667979  0.42821156  0.11681170    -0.26700
C3203       C  0.69870156  0.43542068  0.09761574     0.02900
C3204       C  0.72319911  0.47069096  0.08655454     0.31000
C3205       C  0.71345446  0.49744764  0.09239125    -0.18500
C3206       C  0.68058461  0.49036770  0.11081699    -0.27900
C3207       C  0.65887492  0.45532593  0.12546482     0.45100
C3208       C  0.70321939  0.40505203  0.08636734     0.06200
O3209       O  0.75426395  0.47841999  0.06674447    -0.56400
H3210       H  0.73025104  0.52267405  0.07972621     0.19200
O3211       O  0.62749647  0.44571281  0.14539065    -0.63100
H3212       H  0.64649041  0.40098549  0.12445945     0.17600
C3213       C  0.69815470  0.37731629  0.10932161     0.29900
C3214       C  0.69633342  0.34615323  0.09788272    -0.24000
C3215       C  0.69302197  0.33971692  0.06362686    -0.23300
C3216       C  0.69943780  0.36732406  0.04023635     0.41300
C3217       C  0.70552478  0.40043125  0.05176394    -0.25700
O3218       O  0.68997172  0.37844096  0.14247722    -0.57600
H3219       H  0.69008152  0.32436492  0.11595619     0.17000
O3220       O  0.69490872  0.36049610  0.00665336    -0.59000
H3221       H  0.70773782  0.42085664  0.03363637     0.15400
H3222       H  0.63656724  0.44863417  0.16879006     0.47300
H3223       H  0.66369451  0.35902068  0.14660134     0.42700
H3224       H  0.71747409  0.38012355  0.99526842     0.46100
H3225       H  0.77621250  0.49095474  0.08138396     0.37600
N3226       N  0.65589454  0.02489828  0.56899612    -0.02500
C3227       C  0.65851167  0.50213733  0.59721761     0.00100
C3228       C  0.62399143  0.47799825  0.61209107    -0.22800
C3229       C  0.59625909  0.47826234  0.59316598    -0.23000
C3230       C  0.61296760  0.50220347  0.56653528     0.00000
H3231       H  0.61813072  0.45727340  0.63104214     0.13700
H3232       H  0.56663933  0.45886243  0.59584977     0.13800
N3233       N  0.68146122  0.06257820  0.56180137    -0.02500
C3234       C  0.67224119  0.08476160  0.54301709     0.00100
C3235       C  0.70379656  0.11543145  0.53222932    -0.22800
C3236       C  0.73375959  0.11414315  0.54542171    -0.23000
C3237       C  0.72078038  0.08276464  0.56489232     0.00000
H3238       H  0.70484119  0.13828035  0.51882320     0.13700
H3239       H  0.76235079  0.13615073  0.54353619     0.13800
N3240       N  0.93276363  0.02787581  0.57073522    -0.02500
C3241       C  0.94699894  0.04284100  0.60046048     0.00100
C3242       C  0.96626531  0.02717687  0.61566188    -0.22800
C3243       C  0.96601274  0.00284044  0.59403741    -0.23000
C3244       C  0.94721955  0.00421495  0.56567715     0.00000
H3245       H  0.48308107  0.03858153  0.63851024     0.13700
H3246       H  0.98252531  0.98908905  0.59677275     0.13800
N3247       N  0.89791909  0.02525608  0.55858213    -0.02500
C3248       C  0.87352456  0.99732558  0.53988677     0.00100
C3249       C  0.84308445  0.00109046  0.53079299    -0.22800
C3250       C  0.84715174  0.03150926  0.54430528    -0.23000
C3251       C  0.88008232  0.04670320  0.56240381     0.00000
H3252       H  0.81748391  0.98076636  0.52034438     0.13700
H3253       H  0.82562389  0.03973311  0.54371030     0.13800
N3254       N  0.90824920  0.27624969  0.55129359    -0.02500
C3255       C  0.91401110  0.28286412  0.51783539     0.00100
C3256       C  0.88245149  0.25823784  0.50157529    -0.22800
C3257       C  0.86138759  0.23123112  0.52459788    -0.23000
C3258       C  0.87901291  0.24118048  0.55501532     0.00000
H3259       H  0.87868523  0.25631629  0.47482675     0.13700
H3260       H  0.83834281  0.20522366  0.51886411     0.13800
N3261       N  0.91521003  0.30521216  0.57279609    -0.02500
C3262       C  0.89140999  0.30174558  0.59851278     0.00100
C3263       C  0.90558997  0.33307198  0.61567513    -0.22800
C3264       C  0.93745268  0.35764859  0.59817394    -0.23000
C3265       C  0.94195079  0.34140563  0.57004402     0.00000
H3266       H  0.89048957  0.33964277  0.63432528     0.13700
H3267       H  0.95102024  0.38627636  0.60169141     0.13800
C3268       C  0.67794844  0.30830982  0.55897258     0.03200
C3269       C  0.63962549  0.29612932  0.56560090     0.03200
C3270       C  0.61655228  0.26033310  0.57576057     0.03200
C3271       C  0.62752131  0.23463558  0.56812237     0.03200
C3272       C  0.66518321  0.24590086  0.55879809     0.03200
C3273       C  0.69104039  0.28301108  0.55648372     0.03200
O3274       O  0.92708659  0.14958728  0.68370916    -0.77500
C3275       C  0.81280424  0.03956355  0.69662632     0.83500
O3276       O  0.86824169  0.09609819  0.57194811    -0.78700
O3277       O  0.74522329  0.07757148  0.62090857    -0.80100
O3278       O  0.82167735  0.18305751  0.68537282    -0.79900
O3279       O  0.91310993  0.19443568  0.68088652    -0.78600
Zn3280     Zn  0.87873341  0.10673591  0.65657640     1.55700
O3281       O  0.77640021  0.12604722  0.69332169    -0.80000
Cd3282     Cd  0.86284096  0.17866334  0.65387493     1.59700
Cd3283     Cd  0.84195652  0.12579682  0.59072234     1.59600
O3284       O  0.87674626  0.21671485  0.61229326    -0.79900
O3285       O  0.84309406  0.12558946  0.64129339    -1.90500
Cd3286     Cd  0.78802188  0.09276634  0.65995552     1.59900
O3287       O  0.86278997  0.17974039  0.56989149    -0.79900
O3288       O  0.78582859  0.04555110  0.68680914    -0.78600
C3289       C  0.88209267  0.07685543  0.58480883     0.84000
C3290       C  0.93478361  0.18195852  0.69109283     0.83600
O3291       O  0.84724009  0.06201539  0.68841354    -0.77500
C3292       C  0.79029161  0.15977083  0.69927667     0.84400
O3293       O  0.88894823  0.07867987  0.61643004    -0.77600
C3294       C  0.87362580  0.21151439  0.58071130     0.84600
C3295       C  0.75069752  0.08389262  0.58899339     0.84900
O3296       O  0.78452482  0.09921444  0.57659131    -0.80000
N3297       N  0.74875351  0.43640947  0.73001925    -0.02500
C3298       C  0.75060343  0.42847246  0.69767582     0.00100
C3299       C  0.71558322  0.40303393  0.68754475    -0.22800
C3300       C  0.69212352  0.39258134  0.71508730    -0.23000
C3301       C  0.71471299  0.40817290  0.74228388     0.00000
H3302       H  0.70973535  0.38688767  0.66562071     0.13700
H3303       H  0.66539763  0.36798946  0.71604383     0.13800
N3304       N  0.76159833  0.47366023  0.73721449    -0.02500
C3305       C  0.75792403  0.48045307  0.76955718     0.00100
C3306       C  0.80678860  0.00675306  0.77665199    -0.22800
C3307       C  0.82945500  0.01986448  0.74833459    -0.23000
C3308       C  0.80630930  0.00824798  0.72091396     0.00000
H3309       H  0.81443298  0.01876798  0.80085716     0.13700
H3310       H  0.85692647  0.04319624  0.74818379     0.13800
N3311       N  0.74637150  0.21329491  0.72521343    -0.02500
C3312       C  0.73076874  0.20591028  0.69442908     0.00100
C3313       C  0.73888743  0.23767217  0.67749722    -0.22800
C3314       C  0.75207708  0.26389679  0.70077911    -0.23000
C3315       C  0.75092389  0.24714838  0.73133950     0.00000
H3316       H  0.72655983  0.23969044  0.65411636     0.13700
H3317       H  0.75196957  0.28919161  0.69732397     0.13800
N3318       N  0.77630625  0.20469811  0.73140166    -0.02500
C3319       C  0.79593287  0.21635504  0.75999350     0.00100
C3320       C  0.79317084  0.18752686  0.77871488    -0.22800
C3321       C  0.77846224  0.15886837  0.75814233    -0.23000
C3322       C  0.77236681  0.17073341  0.72747453     0.00000
H3323       H  0.80954762  0.18922697  0.80063540     0.13700
H3324       H  0.78186296  0.13531090  0.76235856     0.13800
N3325       N  0.53074823  0.22943230  0.72964258    -0.02500
C3326       C  0.54180920  0.25304954  0.70288591     0.00100
C3327       C  0.57720792  0.26125787  0.69181119    -0.22800
C3328       C  0.58855963  0.24160676  0.71108805    -0.23000
C3329       C  0.56298552  0.22694377  0.73770837     0.00000
H3330       H  0.59493611  0.28255419  0.67399732     0.13700
H3331       H  0.61746163  0.24641499  0.71070374     0.13800
N3332       N  0.99517734  0.20309947  0.72992051    -0.02500
C3333       C  0.98505285  0.19616008  0.76300490     0.00100
C3334       C  0.96215890  0.21087281  0.77115985    -0.22800
C3335       C  0.94953513  0.21692265  0.74139407    -0.23000
C3336       C  0.96477349  0.20564285  0.71645476     0.00000
H3337       H  0.94748949  0.20793342  0.79478557     0.13700
H3338       H  0.92491842  0.22000114  0.73918981     0.13800
C3339       C  0.52344577  0.46824015  0.71063716     0.03200
C3340       C  0.01956307  0.45233610  0.73301924     0.03200
C3341       C  0.00137869  0.47259485  0.73930185     0.03200
C3342       C  0.02274581  0.50925549  0.74461264     0.03200
C3343       C  0.52259544  0.52389396  0.71979723     0.03200
C3344       C  0.54280450  0.50528375  0.71413736     0.03200
N3345       N  0.83574138  0.36404473  0.89789681    -0.02500
C3346       C  0.85397228  0.35044117  0.91657755     0.00100
C3347       C  0.82812083  0.31966897  0.93377841    -0.22800
C3348       C  0.79323355  0.31184836  0.92246439    -0.23000
C3349       C  0.79810466  0.33795416  0.89845680     0.00000
H3350       H  0.83425351  0.30091585  0.94751248     0.13700
H3351       H  0.76767809  0.28685002  0.92774561     0.13800
N3352       N  0.85463458  0.39997597  0.88424914    -0.02500
C3353       C  0.83989123  0.41484807  0.86258411     0.00100
C3354       C  0.86849556  0.44637678  0.84827756    -0.22800
C3355       C  0.90127221  0.45246926  0.86323570    -0.23000
C3356       C  0.89238371  0.42482448  0.88657387     0.00000
H3357       H  0.86544797  0.46596659  0.83260019     0.13700
H3358       H  0.92805956  0.47675672  0.86009743     0.13800
N3359       N  0.60234518  0.36143918  0.91520723    -0.02500
C3360       C  0.61067774  0.37346613  0.94694367     0.00100
C3361       C  0.62295090  0.35356377  0.96534402    -0.22800
C3362       C  0.62608396  0.33078629  0.94414037    -0.23000
C3363       C  0.61539327  0.33648007  0.91259033     0.00000
H3364       H  0.63485135  0.35927499  0.99005031     0.13700
H3365       H  0.63949418  0.31477528  0.95062524     0.13800
N3366       N  0.58245795  0.37192982  0.89142245    -0.02500
C3367       C  0.56935743  0.35397407  0.86256982     0.00100
C3368       C  0.55896183  0.37330372  0.84095839    -0.22800
C3369       C  0.56134217  0.40174026  0.85842862    -0.23000
C3370       C  0.57259977  0.39947731  0.89100272     0.00000
H3371       H  0.03421080  0.35878638  0.81600549     0.13700
H3372       H  0.54996568  0.41881809  0.84962557     0.13800
N3373       N  0.57389877  0.10194117  0.89070848    -0.02500
C3374       C  0.56364314  0.10419351  0.85865369     0.00100
C3375       C  0.52550027  0.08218964  0.85535707    -0.22800
C3376       C  0.51279032  0.06164926  0.88442314    -0.23000
C3377       C  0.54315295  0.07185370  0.90549564     0.00000
H3378       H  0.51036409  0.07618133  0.83208305     0.13700
H3379       H  0.48584024  0.03752611  0.88731728     0.13800
N3380       N  0.59712451  0.13452596  0.90777294    -0.02500
C3381       C  0.59264094  0.13549937  0.94116206     0.00100
C3382       C  0.62638452  0.15676721  0.95553880    -0.22800
C3383       C  0.65217833  0.17215145  0.92928667    -0.23000
C3384       C  0.63288487  0.16227176  0.89911278     0.00000
H3385       H  0.63067667  0.16402723  0.98149084     0.13700
H3386       H  0.68001016  0.19476299  0.93214752     0.13800
C3387       C  0.82300940  0.15548027  0.87781989     0.03200
C3388       C  0.84155648  0.13621963  0.88850209     0.03200
C3389       C  0.82051217  0.09957183  0.89748240     0.03200
C3390       C  0.78099148  0.08396480  0.90025428     0.03200
C3391       C  0.76422780  0.10645892  0.89804327     0.03200
C3392       C  0.78367893  0.13948973  0.88057315     0.03200
O3393       O  0.57240038  0.46070011  0.52485029    -0.77500
C3394       C  0.95781328  0.36657213  0.53902101     0.83500
O3395       O  0.54931485  0.44004809  0.90797827    -0.78700
O3396       O  0.91264388  0.42189447  0.94420330    -0.80100
O3397       O  0.49507223  0.02001218  0.52189125    -0.79900
O3398       O  0.57466366  0.51397311  0.52451437    -0.78600
Zn3399     Zn  0.54225099  0.43199414  0.99277708     1.55700
O3400       O  0.94189510  0.45997927  0.52953456    -0.80000
Cd3401     Cd  0.52820724  0.50778939  0.49276526     1.59700
Cd3402     Cd  0.51932738  0.46618869  0.92859457     1.59600
O3403       O  0.54856760  0.04434134  0.95997405    -0.79900
O3404       O  0.51174413  0.45709469  0.97939652    -1.90500
Cd3405     Cd  0.94996852  0.42578176  0.49425007     1.59900
O3406       O  0.54164679  0.52314740  0.91336795    -0.79900
O3407       O  0.93684217  0.37779524  0.52450169    -0.78600
C3408       C  0.56086643  0.41804292  0.91852659     0.84000
C3409       C  0.58765528  0.49323217  0.53508741     0.83600
O3410       O  0.99339536  0.38176280  0.53163587    -0.77500
C3411       C  0.96093426  0.99391420  0.53399033     0.84400
O3412       O  0.55922464  0.41093785  0.95035208    -0.77600
C3413       C  0.54237439  0.04139836  0.92818594     0.84600
C3414       C  0.92119266  0.42930028  0.91272316     0.84900
O3415       O  0.95558265  0.44452756  0.90241038    -0.80000
O3416       O  0.67538584  0.35756747  0.77936022    -0.77500
C3417       C  0.58747852  0.24053869  0.76868406     0.83500
O3418       O  0.64555959  0.30418396  0.89200276    -0.78700
O3419       O  0.64182033  0.19449230  0.84394580    -0.80100
O3420       O  0.74597537  0.28968694  0.76816876    -0.79900
O3421       O  0.73514496  0.36939622  0.77445241    -0.78600
Zn3422     Zn  0.64362940  0.31039208  0.80893510     1.55700
O3423       O  0.69856924  0.23318505  0.77115192    -0.80000
Cd3424     Cd  0.73181092  0.32150928  0.80164312     1.59700
Cd3425     Cd  0.67628349  0.28112211  0.87073867     1.59600
O3426       O  0.77162286  0.33731547  0.84249763    -0.79900
O3427       O  0.67696511  0.28762621  0.82026260    -1.90500
Cd3428     Cd  0.65644358  0.23558368  0.80403835     1.59900
O3429       O  0.73268527  0.30931909  0.88638255    -0.79900
O3430       O  0.60672994  0.22459415  0.77648130    -0.78600
C3431       C  0.62952879  0.32285514  0.88345006     0.84000
C3432       C  0.70921625  0.37810431  0.76812496     0.83600
O3433       O  0.59683171  0.27201636  0.77985666    -0.77500
C3434       C  0.73135164  0.25662127  0.75953807     0.84400
O3435       O  0.62784886  0.32990203  0.85224645    -0.77600
C3436       C  0.76613848  0.32908768  0.87416764     0.84600
C3437       C  0.64187060  0.19553462  0.87599276     0.84900
O3438       O  0.65314862  0.22615774  0.88941939    -0.80000
C3439       C  0.87975911  0.05343568  0.89406484    -0.26700
C3440       C  0.90355308  0.07038950  0.92097063     0.02900
C3441       C  0.89336118  0.08915441  0.94369788     0.31000
C3442       C  0.86038178  0.09111546  0.93928984    -0.18500
C3443       C  0.84113606  0.08050676  0.90917140    -0.27900
C3444       C  0.84905234  0.05929188  0.88755893     0.45100
C3445       C  0.94326307  0.07841337  0.91983532     0.06200
O3446       O  0.91818237  0.11020624  0.96720949    -0.56400
H3447       H  0.85323080  0.10606727  0.95671500     0.19200
O3448       O  0.82826066  0.04582737  0.85937236    -0.63100
H3449       H  0.88738900  0.03905068  0.87626254     0.17600
C3450       C  0.96120557  0.07451387  0.94879354     0.29900
C3451       C  0.53579702  0.10051575  0.97770712    -0.24000
C3452       C  0.55582670  0.12878320  0.95445056    -0.23300
C3453       C  0.53613279  0.14206936  0.93486675     0.41300
C3454       C  0.96527765  0.10070050  0.89292493    -0.25700
O3455       O  0.94072415  0.05324679  0.97571446    -0.57600
H3456       H  0.54973382  0.08945555  0.99259404     0.17000
O3457       O  0.55507392  0.17185543  0.91391815    -0.59000
H3458       H  0.95194248  0.10501563  0.87106673     0.15400
H3459       H  0.83393117  0.06690672  0.84440578     0.47300
H3460       H  0.94739068  0.06924184  0.99508713     0.42700
H3461       H  0.55013073  0.16303804  0.89068067     0.46100
H3462       H  0.93627692  0.13236597  0.95457318     0.37600
C3463       C  0.71840130  0.16564475  0.83555547    -0.26700
C3464       C  0.70086242  0.13558671  0.81516909     0.02900
C3465       C  0.71884725  0.11513880  0.80964289     0.31000
C3466       C  0.75009796  0.12077997  0.82825463    -0.18500
C3467       C  0.76301765  0.14603481  0.85334802    -0.27900
C3468       C  0.74934040  0.17079269  0.85506966     0.45100
C3469       C  0.65982319  0.11944749  0.80992303     0.06200
O3470       O  0.70427456  0.08800498  0.78754472    -0.56400
H3471       H  0.76226491  0.10323200  0.82513326     0.19200
O3472       O  0.76176637  0.19627436  0.87897836    -0.63100
H3473       H  0.70500361  0.18191686  0.84018757     0.17600
C3474       C  0.63568092  0.08551612  0.82535326     0.29900
C3475       C  0.59966026  0.07770061  0.83552836    -0.24000
C3476       C  0.58820095  0.10367272  0.83180333    -0.23300
C3477       C  0.60752352  0.13254910  0.80913491     0.41300
C3478       C  0.64424464  0.14099821  0.79865240    -0.25700
O3479       O  0.64844989  0.06194628  0.83461013    -0.57600
H3480       H  0.58304163  0.05368985  0.85103421     0.17000
O3481       O  0.59261316  0.15467487  0.80095173    -0.59000
H3482       H  0.66172164  0.16604019  0.78506540     0.15400
H3483       H  0.77979255  0.21884552  0.86688124     0.47300
H3484       H  0.64321570  0.05665856  0.85906587     0.42700
H3485       H  0.59848399  0.16124292  0.77673509     0.46100
H3486       H  0.70054300  0.06619010  0.80032261     0.37600
C3487       C  0.98561967  0.27243668  0.89956747    -0.26700
C3488       C  0.99045336  0.24461438  0.88609864     0.02900
C3489       C  0.02217614  0.25443666  0.86435691     0.31000
C3490       C  0.04485347  0.29046351  0.85396094    -0.18500
C3491       C  0.54591719  0.31449359  0.86506659    -0.27900
C3492       C  0.51857620  0.30041997  0.89089426     0.45100
C3493       C  0.95917569  0.20702760  0.89266909     0.06200
O3494       O  0.03257147  0.22992852  0.85402211    -0.56400
H3495       H  0.06593415  0.29671449  0.83446830     0.19200
O3496       O  0.50912940  0.32219487  0.90855093    -0.63100
H3497       H  0.96139582  0.26719028  0.91512406     0.17600
C3498       C  0.94506116  0.18179886  0.86717763     0.29900
C3499       C  0.90683944  0.15639667  0.86705231    -0.24000
C3500       C  0.88280375  0.15545873  0.89278785    -0.23300
C3501       C  0.89799835  0.17556436  0.92138790     0.41300
C3502       C  0.93626773  0.20007294  0.92158752    -0.25700
O3503       O  0.96746637  0.18300088  0.84115606    -0.57600
H3504       H  0.89549857  0.13933776  0.84576641     0.17000
O3505       O  0.87493341  0.17436035  0.94741264    -0.59000
H3506       H  0.94665317  0.21716552  0.94259757     0.15400
H3507       H  0.50148450  0.33460962  0.89136880     0.47300
H3508       H  0.97574524  0.16527808  0.84761121     0.42700
H3509       H  0.88308396  0.16577589  0.96745204     0.46100
H3510       H  0.04510295  0.22558521  0.87356560     0.37600
C3511       C  0.66895171  0.06929119  0.93603489    -0.26700
C3512       C  0.67555952  0.04635175  0.95747244     0.02900
C3513       C  0.71205724  0.05940771  0.97085929     0.31000
C3514       C  0.74148157  0.09037108  0.95617610    -0.18500
C3515       C  0.73582923  0.10155846  0.92439969    -0.27900
C3516       C  0.69928285  0.09542933  0.91711197     0.45100
C3517       C  0.66422672  0.48271921  0.97237602     0.06200
O3518       O  0.73213494  0.51768412  0.00960791    -0.56400
H3519       H  0.76997767  0.09805085  0.96386084     0.19200
O3520       O  0.69206068  0.10989234  0.88905149    -0.63100
H3521       H  0.64067529  0.06105560  0.92737886     0.17600
C3522       C  0.64819616  0.45614978  0.99783106     0.29900
C3523       C  0.62763921  0.42040798  0.98895830    -0.24000
C3524       C  0.62689071  0.41111562  0.95514861    -0.23300
C3525       C  0.64768412  0.43788297  0.93054039     0.41300
C3526       C  0.66454005  0.47318477  0.93901150    -0.25700
O3527       O  0.65236680  0.46483493  0.03097660    -0.57600
H3528       H  0.61360819  0.39987108  0.00854908     0.17000
O3529       O  0.65212686  0.43016934  0.89812088    -0.59000
H3530       H  0.67874749  0.49347178  0.91932600     0.15400
H3531       H  0.68188977  0.12537322  0.89739921     0.47300
H3532       H  0.66558996  0.45251516  0.04096242     0.42700
H3533       H  0.66659423  0.41688504  0.89962772     0.46100
H3534       H  0.75161041  0.53570819  0.02394109     0.37600
C3535       C  0.77457757  0.95419056  0.85331316    -0.26700
C3536       C  0.76160993  0.95034144  0.88700833     0.02900
C3537       C  0.75126512  0.40443261  0.90358532     0.31000
C3538       C  0.78322778  0.40101622  0.89782492    -0.18500
C3539       C  0.80149620  0.41025155  0.86611147    -0.27900
C3540       C  0.78559378  0.42126432  0.83997918     0.45100
C3541       C  0.74899614  0.97573967  0.89987657     0.06200
O3542       O  0.73149609  0.39206258  0.93339257    -0.56400
H3543       H  0.79473340  0.39311880  0.91869361     0.19200
O3544       O  0.80086479  0.42873860  0.80792602    -0.63100
H3545       H  0.76893384  0.97032783  0.83540159     0.17600
C3546       C  0.76387637  0.99484534  0.92967895     0.29900
C3547       C  0.76614348  0.02828481  0.93327282    -0.24000
C3548       C  0.75774742  0.04468624  0.90627885    -0.23300
C3549       C  0.73626567  0.02342238  0.88011652     0.41300
C3550       C  0.73087670  0.98853688  0.87781752    -0.25700
O3551       O  0.78203645  0.98467521  0.95288240    -0.57600
H3552       H  0.78125572  0.04402694  0.95441235     0.17000
O3553       O  0.72442007  0.03777903  0.85470187    -0.59000
H3554       H  0.71708644  0.97362270  0.85615000     0.15400
H3555       H  0.80092899  0.40664077  0.80069565     0.47300
H3556       H  0.80893904  0.99770602  0.94572725     0.42700
H3557       H  0.74114995  0.04095422  0.83511435     0.46100
H3558       H  0.70621257  0.37299165  0.92720530     0.37600
C3559       C  0.92532296  0.32127021  0.91218148    -0.26700
C3560       C  0.91517452  0.30756408  0.87988283     0.02900
C3561       C  0.90472338  0.32642702  0.85665707     0.31000
C3562       C  0.89175439  0.34902110  0.86886378    -0.18500
C3563       C  0.88895451  0.35179825  0.90370781    -0.27900
C3564       C  0.91042884  0.34219640  0.92487488     0.45100
C3565       C  0.89420080  0.26816356  0.87856278     0.06200
O3566       O  0.89681227  0.31547354  0.82429940    -0.56400
H3567       H  0.87698090  0.35785457  0.85167343     0.19200
O3568       O  0.91102165  0.34754668  0.95869774    -0.63100
H3569       H  0.93488355  0.30793297  0.93004189     0.17600
C3570       C  0.89742113  0.24899646  0.85159922     0.29900
C3571       C  0.87227658  0.21224778  0.84990892    -0.24000
C3572       C  0.84440703  0.19467817  0.87512245    -0.23300
C3573       C  0.84152985  0.21374838  0.90209763     0.41300
C3574       C  0.86592905  0.25008298  0.90341639    -0.25700
O3575       O  0.92482630  0.26580986  0.82708735    -0.57600
H3576       H  0.87537972  0.19712148  0.82984016     0.17000
O3577       O  0.81691889  0.19624332  0.92866892    -0.59000
H3578       H  0.86227158  0.26423192  0.92409506     0.15400
H3579       H  0.89637132  0.32343643  0.96971363     0.47300
H3580       H  0.94487195  0.25960230  0.83274636     0.42700
H3581       H  0.80140860  0.20833457  0.93146254     0.46100
H3582       H  0.90862960  0.33787224  0.81021992     0.37600
C3583       C  0.95478404  0.03226608  0.80855736    -0.26700
C3584       C  0.94318920  0.05167232  0.78733082     0.02900
C3585       C  0.93537450  0.04240005  0.75353438     0.31000
C3586       C  0.42698068  0.99301643  0.73544015    -0.18500
C3587       C  0.96089582  0.00173696  0.76030305    -0.27900
C3588       C  0.96347739  0.00703729  0.79511991     0.45100
C3589       C  0.95316708  0.08850052  0.79520510     0.06200
O3590       O  0.39863577  0.02942964  0.72211438    -0.56400
H3591       H  0.42367625  0.98480354  0.70961990     0.19200
O3592       O  0.99395408  0.50087813  0.81096416    -0.63100
H3593       H  0.96050508  0.03923554  0.83463458     0.17600
C3594       C  0.92590249  0.09988331  0.79441292     0.29900
C3595       C  0.93669035  0.13528144  0.78480098    -0.24000
C3596       C  0.97494247  0.16021904  0.77777909    -0.23300
C3597       C  0.00229398  0.14932651  0.78268107     0.41300
C3598       C  0.99128798  0.11366999  0.79103052    -0.25700
O3599       O  0.88832984  0.07592082  0.79875393    -0.57600
H3600       H  0.91478379  0.14271960  0.78136734     0.17000
O3601       O  0.51998783  0.15129594  0.73473855    -0.59000
H3602       H  0.48943777  0.08294058  0.74483525     0.15400
H3603       H  0.01792704  0.51459633  0.82290911     0.47300
H3604       H  0.88623533  0.06124602  0.81921444     0.42700
H3605       H  0.54179027  0.15335099  0.74760104     0.46100
H3606       H  0.41172399  0.05596290  0.72114756     0.37600
C3607       C  0.56124493  0.40412197  0.71388726    -0.26700
C3608       C  0.54309520  0.38445793  0.68563635     0.02900
C3609       C  0.05627357  0.41182720  0.66525014     0.31000
C3610       C  0.06411263  0.44473033  0.67825286    -0.18500
C3611       C  0.54159943  0.44767753  0.69877587    -0.27900
C3612       C  0.55849279  0.43441692  0.72161346     0.45100
C3613       C  0.53239258  0.34609448  0.68625321     0.06200
O3614       O  0.03621545  0.40079721  0.63631195    -0.56400
H3615       H  0.05375215  0.46084642  0.66520698     0.19200
O3616       O  0.56777699  0.44784875  0.75310271    -0.63100
H3617       H  0.57276540  0.39317738  0.73247323     0.17600
C3618       C  0.53963487  0.32987083  0.65893890     0.29900
C3619       C  0.53552733  0.29554383  0.66338758    -0.24000
C3620       C  0.52780985  0.27862977  0.69555911    -0.23300
C3621       C  0.51808794  0.29395573  0.72216210     0.41300
C3622       C  0.51832971  0.32643051  0.71673439    -0.25700
O3623       O  0.55409277  0.34830091  0.62894924    -0.57600
H3624       H  0.54345193  0.28430322  0.64276269     0.17000
O3625       O  0.01781138  0.28207899  0.74768287    -0.59000
H3626       H  0.02217767  0.34221229  0.73274049     0.15400
H3627       H  0.54851154  0.42957431  0.76870664     0.47300
H3628       H  0.58048977  0.36631322  0.63350146     0.42700
H3629       H  0.04317880  0.29549162  0.75744196     0.46100
H3630       H  0.05496300  0.41253866  0.61769833     0.37600
C3631       C  0.90067576  0.27663443  0.74541605    -0.26700
C3632       C  0.90291385  0.31031261  0.74468898     0.02900
C3633       C  0.87041494  0.31353416  0.75091635     0.31000
C3634       C  0.83596155  0.28296651  0.75810281    -0.18500
C3635       C  0.83319221  0.24893850  0.75777937    -0.27900
C3636       C  0.86601857  0.24597105  0.75136187     0.45100
C3637       C  0.93909395  0.34240801  0.73738681     0.06200
O3638       O  0.87226608  0.34657984  0.74990635    -0.56400
H3639       H  0.81163213  0.28611562  0.76372379     0.19200
O3640       O  0.86396400  0.21303403  0.74894463    -0.63100
H3641       H  0.92569069  0.27429801  0.74030378     0.17600
C3642       C  0.96740998  0.35579007  0.76152108     0.29900
C3643       C  0.99570633  0.39145070  0.75858881    -0.24000
C3644       C  0.99706844  0.41288996  0.73071409    -0.23300
C3645       C  0.97324349  0.39703793  0.70355663     0.41300
C3646       C  0.94328508  0.36229798  0.70767793    -0.25700
O3647       O  0.96599903  0.33530231  0.78921152    -0.57600
H3648       H  0.01516296  0.40298290  0.77892543     0.17000
O3649       O  0.97734020  0.41632075  0.67420734    -0.59000
H3650       H  0.92233626  0.35147636  0.68839894     0.15400
H3651       H  0.87109792  0.20777691  0.77133598     0.47300
H3652       H  0.97711476  0.32034036  0.78158486     0.42700
H3653       H  0.97704624  0.40102051  0.65580052     0.46100
H3654       H  0.87025445  0.35207895  0.77364468     0.37600
C3655       C  0.64802988  0.11200646  0.69155208    -0.26700
C3656       C  0.61765450  0.11859599  0.69680463     0.02900
C3657       C  0.62423550  0.15407901  0.69799832     0.31000
C3658       C  0.66115043  0.18229153  0.69589978    -0.18500
C3659       C  0.69191598  0.17568801  0.69175170    -0.27900
C3660       C  0.68479163  0.14023721  0.68820337     0.45100
C3661       C  0.58020301  0.08790437  0.70452754     0.06200
O3662       O  0.59504550  0.16141493  0.70260125    -0.56400
H3663       H  0.66582509  0.20939082  0.69862545     0.19200
O3664       O  0.71351893  0.13278969  0.68199430    -0.63100
H3665       H  0.64345091  0.08474825  0.69102035     0.17600
C3666       C  0.56458918  0.05875749  0.68328845     0.29900
C3667       C  0.53417792  0.02651235  0.69470109    -0.24000
C3668       C  0.52247280  0.02166073  0.72866207    -0.23300
C3669       C  0.53630465  0.05135870  0.74918602     0.41300
C3670       C  0.56388553  0.08467268  0.73643003    -0.25700
O3671       O  0.58125359  0.06066956  0.65269266    -0.57600
H3672       H  0.52378444  0.00365706  0.67860377     0.17000
O3673       O  0.52572213  0.04760530  0.78234528    -0.59000
H3674       H  0.57545343  0.10698716  0.75269071     0.15400
H3675       H  0.70793619  0.12039378  0.66034872     0.47300
H3676       H  0.59275267  0.04473546  0.65489185     0.42700
H3677       H  0.54139918  0.03868113  0.79381155     0.46100
H3678       H  0.58098637  0.15501376  0.68134930     0.37600
C3679       C  0.62414488  0.52301985  0.76570473    -0.26700
C3680       C  0.64728106  0.51970309  0.74166050     0.02900
C3681       C  0.64137802  0.52282720  0.70724142     0.31000
C3682       C  0.60890034  0.52394841  0.69737020    -0.18500
C3683       C  0.58289416  0.52200193  0.72188478    -0.27900
C3684       C  0.59194677  0.52426924  0.75610845     0.45100
C3685       C  0.67584843  0.51067989  0.75341807     0.06200
O3686       O  0.66477404  0.52075690  0.68340131    -0.56400
H3687       H  0.60187276  0.52201965  0.67100226     0.19200
O3688       O  0.55435484  0.98098133  0.80505320    -0.63100
H3689       H  0.62458558  0.99662007  0.81130311     0.17600
C3690       C  0.71400304  0.53600836  0.75040110     0.29900
C3691       C  0.74068733  0.52771143  0.76334600    -0.24000
C3692       C  0.73019144  0.49270826  0.77541774    -0.23300
C3693       C  0.69183056  0.46777693  0.77992151     0.41300
C3694       C  0.66472816  0.47720037  0.76948528    -0.25700
O3695       O  0.71714135  0.05588460  0.73242736    -0.57600
H3696       H  0.77117064  0.04629655  0.75244547     0.17000
O3697       O  0.68081974  0.43352182  0.79182973    -0.59000
H3698       H  0.63512900  0.45773704  0.77230227     0.15400
H3699       H  0.54343647  0.95473923  0.80923256     0.47300
H3700       H  0.69601318  0.06109479  0.73536361     0.42700
H3701       H  0.66548115  0.43010056  0.81251345     0.46100
H3702       H  0.68020032  0.54560645  0.67421689     0.37600
C3703       C  0.89514534  0.42711278  0.73828288    -0.26700
C3704       C  0.88991121  0.43322330  0.70428407     0.02900
C3705       C  0.92114950  0.45083322  0.68240377     0.31000
C3706       C  0.95712723  0.46587064  0.69515106    -0.18500
C3707       C  0.96244164  0.45917209  0.72876517    -0.27900
C3708       C  0.93144699  0.43906133  0.75038538     0.45100
C3709       C  0.85294815  0.42728479  0.69323353     0.06200
O3710       O  0.91647053  0.45388993  0.64863209    -0.56400
H3711       H  0.98120261  0.48095895  0.67832411     0.19200
O3712       O  0.93648899  0.43127794  0.78301217    -0.63100
H3713       H  0.87130708  0.41413760  0.75566882     0.17600
C3714       C  0.81990549  0.39549192  0.70198600     0.29900
C3715       C  0.78526215  0.39465202  0.69897622    -0.24000
C3716       C  0.78355127  0.42533723  0.68757256    -0.23300
C3717       C  0.81583624  0.45504279  0.67425493     0.41300
C3718       C  0.85056479  0.45621066  0.67770623    -0.25700
O3719       O  0.82142988  0.36591604  0.71474338    -0.57600
H3720       H  0.76008007  0.37115901  0.70842585     0.17000
O3721       O  0.81387813  0.48385190  0.66011682    -0.59000
H3722       H  0.87576817  0.48085995  0.67048185     0.15400
H3723       H  0.92722518  0.44441866  0.79709831     0.47300
H3724       H  0.81205202  0.36259218  0.73837691     0.42700
H3725       H  0.82303897  0.48622737  0.63651501     0.46100
H3726       H  0.91648798  0.43270521  0.63882968     0.37600
C3727       C  0.72537799  0.20703028  0.53132011    -0.26700
C3728       C  0.73795231  0.20427655  0.56371658     0.02900
C3729       C  0.71077593  0.19409414  0.58985808     0.31000
C3730       C  0.68337643  0.20476607  0.58753773    -0.18500
C3731       C  0.67927399  0.21981730  0.55726916    -0.27900
C3732       C  0.69686283  0.21656677  0.52799634     0.45100
C3733       C  0.77881444  0.22775784  0.57211716     0.06200
O3734       O  0.71300069  0.17752391  0.61887341    -0.52500
H3735       H  0.66886850  0.20512936  0.61029136     0.19200
O3736       O  0.69063147  0.22776722  0.49719857    -0.63100
H3737       H  0.74129981  0.20764467  0.50912749     0.17600
C3738       C  0.80249606  0.25845243  0.55150595     0.29900
C3739       C  0.83712761  0.28406997  0.56286461    -0.24000
C3740       C  0.85056937  0.27989698  0.59392981    -0.23300
C3741       C  0.82751128  0.25090404  0.61535576     0.41300
C3742       C  0.79268942  0.22438439  0.60397284    -0.25700
O3743       O  0.79233065  0.26490880  0.52037464    -0.57600
H3744       H  0.85482437  0.30667980  0.54614937     0.17000
O3745       O  0.83969729  0.24722431  0.64654490    -0.59000
H3746       H  0.77716471  0.20127703  0.62048311     0.15400
H3747       H  0.66523618  0.20896673  0.49086524     0.47300
H3748       H  0.79613303  0.24259890  0.98161998     0.42700
H3749       H  0.82537907  0.25380149  0.66263235     0.46100
H3750       H  0.69872632  0.15159131  0.61436385     0.37600
C3751       C  0.51295624  0.33110623  0.49640225    -0.26700
C3752       C  0.52294157  0.30497324  0.50567296     0.02900
C3753       C  0.49481923  0.26900088  0.51030153     0.31000
C3754       C  0.95831890  0.25949985  0.51532810    -0.18500
C3755       C  0.95013611  0.28693644  0.50582621    -0.27900
C3756       C  0.97896116  0.31950172  0.49294889     0.45100
C3757       C  0.56204957  0.31524511  0.51324316     0.06200
O3758       O  0.50375771  0.24263134  0.51900247    -0.56400
H3759       H  0.93669201  0.23420583  0.52602854     0.19200
O3760       O  0.97076106  0.34406568  0.47781014    -0.63100
H3761       H  0.53471907  0.35845383  0.49217366     0.17600
C3762       C  0.57954432  0.29776675  0.49757445     0.29900
C3763       C  0.60925741  0.29636498  0.51334806    -0.24000
C3764       C  0.62080256  0.31132731  0.54489250    -0.23300
C3765       C  0.60727535  0.33326388  0.55808048     0.41300
C3766       C  0.57797230  0.33557280  0.54180053    -0.25700
O3767       O  0.56387588  0.27737918  0.47003195    -0.57600
H3768       H  0.62041428  0.27999664  0.50293209     0.17000
O3769       O  0.61983195  0.34941273  0.58816672    -0.59000
H3770       H  0.56471686  0.34942553  0.55369952     0.15400
H3771       H  0.97927503  0.34607711  0.45416012     0.47300
H3772       H  0.58472040  0.28334104  0.45358316     0.42700
H3773       H  0.60732336  0.33003659  0.60565685     0.46100
H3774       H  0.49493186  0.22571098  0.50039622     0.37600
C3775       C  0.79434994  0.32767767  0.56970017    -0.26700
C3776       C  0.80557965  0.35177405  0.54171010     0.02900
C3777       C  0.78027145  0.34328843  0.51459818     0.31000
C3778       C  0.74447436  0.31394196  0.51743231    -0.18500
C3779       C  0.73121108  0.29640556  0.54850598    -0.27900
C3780       C  0.75673016  0.30127555  0.57402239     0.45100
C3781       C  0.83825128  0.38868105  0.54396376     0.06200
O3782       O  0.78733655  0.36620695  0.48744644    -0.56400
H3783       H  0.72495285  0.30909471  0.49724787     0.19200
O3784       O  0.74463978  0.28235577  0.60402173    -0.63100
H3785       H  0.81357496  0.33121304  0.58978646     0.17600
C3786       C  0.84527628  0.40760733  0.57426272     0.29900
C3787       C  0.86335593  0.44491672  0.57300502    -0.24000
C3788       C  0.87349340  0.46381330  0.54206885    -0.23300
C3789       C  0.87009395  0.44550176  0.51239866     0.41300
C3790       C  0.85562641  0.40840760  0.51405874    -0.25700
O3791       O  0.83235986  0.39049515  0.60503573    -0.57600
H3792       H  0.86595085  0.45890875  0.59603876     0.17000
O3793       O  0.87921726  0.46339991  0.48168179    -0.59000
H3794       H  0.85375665  0.39480798  0.49099395     0.15400
H3795       H  0.74132095  0.29849726  0.61955895     0.47300
H3796       H  0.80620953  0.38643401  0.60745518     0.42700
H3797       H  0.86452012  0.95253331  0.46928799     0.46100
H3798       H  0.77907131  0.38353200  0.49469351     0.37600
C3799       C  0.47718019  0.13365879  0.64513883    -0.26700
C3800       C  0.48729352  0.15819484  0.61766369     0.02900
C3801       C  0.48087164  0.14506019  0.58467178     0.31000
C3802       C  0.46749506  0.10879727  0.57982006    -0.18500
C3803       C  0.45894892  0.08467093  0.60719093    -0.27900
C3804       C  0.46316890  0.09717373  0.64010629     0.45100
C3805       C  0.51414338  0.19640432  0.62268844     0.06200
O3806       O  0.49188837  0.16769005  0.55676177    -0.56400
H3807       H  0.46516743  0.09977091  0.55429917     0.19200
O3808       O  0.95231767  0.06815196  0.66747091    -0.63100
H3809       H  0.48267994  0.14313652  0.67054746     0.17600
C3810       C  0.51511454  0.22303156  0.60036589     0.29900
C3811       C  0.54986604  0.24808015  0.58604828    -0.24000
C3812       C  0.58304803  0.24936431  0.59775557    -0.23300
C3813       C  0.58169413  0.23103933  0.62797634     0.41300
C3814       C  0.54710112  0.20352229  0.63973415    -0.25700
O3815       O  0.48242685  0.22009906  0.58751294    -0.57600
H3816       H  0.55027891  0.26340921  0.56407631     0.17000
O3817       O  0.61426391  0.23504089  0.64248724    -0.59000
H3818       H  0.54710215  0.18489099  0.65877898     0.15400
H3819       H  0.92459131  0.05251865  0.66718588     0.47300
H3820       H  0.47296936  0.23064745  0.60450619     0.42700
H3821       H  0.63141466  0.26119161  0.64384541     0.46100
H3822       H  0.46816247  0.16438320  0.54656362     0.37600
C3823       C  0.59455905  0.10484905  0.51636181    -0.26700
C3824       C  0.57289121  0.09649876  0.54650357     0.02900
C3825       C  0.57778685  0.07433139  0.57029963     0.31000
C3826       C  0.61234616  0.07454552  0.57119880    -0.18500
C3827       C  0.63546712  0.08441942  0.54227345    -0.27900
C3828       C  0.62479250  0.09766692  0.51375188     0.45100
C3829       C  0.56058852  0.12252153  0.55827610     0.06200
O3830       O  0.55022555  0.05494235  0.59395118    -0.56400
H3831       H  0.62032839  0.06584093  0.59399369     0.19200
O3832       O  0.64567032  0.10672059  0.48435056    -0.63100
H3833       H  0.59083569  0.12003898  0.49589737     0.17600
C3834       C  0.57123339  0.13616676  0.59083148     0.29900
C3835       C  0.59301638  0.17278597  0.59411304    -0.24000
C3836       C  0.59871717  0.19633482  0.56690246    -0.23300
C3837       C  0.57763137  0.18280501  0.53781683     0.41300
C3838       C  0.55756114  0.14561758  0.53399031    -0.25700
O3839       O  0.56613991  0.11454664  0.61862015    -0.57600
H3840       H  0.60659685  0.18212418  0.61769798     0.17000
O3841       O  0.57882739  0.20554380  0.51220418    -0.59000
H3842       H  0.54512848  0.13533833  0.51007954     0.15400
H3843       H  0.63103469  0.08684519  0.46916466     0.47300
H3844       H  0.54252081  0.11114626  0.62959105     0.42700
H3845       H  0.60320927  0.21326273  0.50020317     0.46100
H3846       H  0.54466051  0.02973771  0.59162913     0.37600
C3847       C  0.70615047  0.44678798  0.61534797    -0.26700
C3848       C  0.72567072  0.45107336  0.58493330     0.02900
C3849       C  0.73410215  0.48125826  0.56454649     0.31000
C3850       C  0.71483699  0.50089401  0.57008192    -0.18500
C3851       C  0.69062679  0.49341280  0.59824519    -0.27900
C3852       C  0.69141141  0.46948749  0.62330615     0.45100
C3853       C  0.72895531  0.42020538  0.57179598     0.06200
O3854       O  0.75836150  0.48926194  0.53756992    -0.56400
H3855       H  0.71682948  0.51997069  0.55099495     0.19200
O3856       O  0.67441552  0.46515762  0.65425670    -0.63100
H3857       H  0.69912531  0.42386638  0.63166459     0.17600
C3858       C  0.73870814  0.39927511  0.59306832     0.29900
C3859       C  0.72469971  0.36282903  0.58744970    -0.24000
C3860       C  0.70375873  0.34776664  0.55879577    -0.23300
C3861       C  0.70213647  0.37087259  0.53354305     0.41300
C3862       C  0.71354494  0.40662402  0.54055585    -0.25700
O3863       O  0.76000647  0.41385920  0.62047464    -0.57600
H3864       H  0.72788300  0.34600641  0.60659427     0.17000
O3865       O  0.68513865  0.35802318  0.50366610    -0.59000
H3866       H  0.70690368  0.42249494  0.52288727     0.15400
H3867       H  0.69541136  0.47683173  0.67009681     0.47300
H3868       H  0.78575243  0.42962250  0.61116820     0.42700
H3869       H  0.69604301  0.34334520  0.49501633     0.46100
H3870       H  0.77580247  0.51530005  0.53839231     0.37600
N3871       N  0.65937911  0.52322379  0.07364825    -0.02500
C3872       C  0.66637697  0.99588216  0.09548005     0.00100
C3873       C  0.63540813  0.97324896  0.11546786    -0.22800
C3874       C  0.60431791  0.97265839  0.10103621    -0.23000
C3875       C  0.61675709  0.99628107  0.07365923     0.00000
H3876       H  0.63417223  0.95270696  0.13287673     0.13700
H3877       H  0.57538079  0.95271710  0.10631993     0.13800
N3878       N  0.68581478  0.55745374  0.05849745    -0.02500
C3879       C  0.67691317  0.57342379  0.03263402     0.00100
C3880       C  0.70904502  0.60062245  0.01737251    -0.22800
C3881       C  0.73853931  0.60372682  0.03527036    -0.23000
C3882       C  0.72481902  0.57885884  0.06194335     0.00000
H3883       H  0.71115786  0.62025432  0.99843993     0.13700
H3884       H  0.76706672  0.62528548  0.03105873     0.13800
N3885       N  0.92923272  0.53328350  0.06856668    -0.02500
C3886       C  0.94315974  0.54829964  0.09825702     0.00100
C3887       C  0.95785525  0.52948364  0.11529756    -0.22800
C3888       C  0.95578187  0.50352059  0.09447691    -0.23000
C3889       C  0.94032551  0.50710010  0.06465416     0.00000
H3890       H  0.49012116  0.52166018  0.14302841     0.13700
H3891       H  0.96993549  0.48770469  0.09861184     0.13800
N3892       N  0.89681579  0.53386128  0.05451841    -0.02500
C3893       C  0.87597417  0.51060556  0.03054104     0.00100
C3894       C  0.85429591  0.52262748  0.01410064    -0.22800
C3895       C  0.85983023  0.55311651  0.02933647    -0.23000
C3896       C  0.88431067  0.55955156  0.05586410     0.00000
H3897       H  0.83284983  0.50826458  0.99592012     0.13700
H3898       H  0.84346841  0.56659849  0.02397881     0.13800
N3899       N  0.91610366  0.78394604  0.05151953    -0.02500
C3900       C  0.91507340  0.78492598  0.01746953     0.00100
C3901       C  0.87947339  0.76086691  0.00753371    -0.22800
C3902       C  0.85907977  0.74248700  0.03583539    -0.23000
C3903       C  0.88277008  0.75382408  0.06309917     0.00000
H3904       H  0.87165105  0.75177869  0.98238226     0.13700
H3905       H  0.83256854  0.71779361  0.03512988     0.13800
N3906       N  0.94141824  0.81544888  0.06921773    -0.02500
C3907       C  0.95204480  0.81123078  0.10063635     0.00100
C3908       C  0.99056676  0.83062326  0.10294300    -0.22800
C3909       C  0.00354898  0.85253445  0.07474707    -0.23000
C3910       C  0.97280238  0.84552556  0.05501597     0.00000
H3911       H  0.00632954  0.83424578  0.12558052     0.13700
H3912       H  0.03158968  0.87523072  0.07187474     0.13800
C3913       C  0.73206843  0.82699667  0.06097374     0.03200
C3914       C  0.69653970  0.81309743  0.07825108     0.03200
C3915       C  0.68106136  0.77895977  0.09471134     0.03200
C3916       C  0.70028428  0.75942374  0.08931039     0.03200
C3917       C  0.73889260  0.77681322  0.08224347     0.03200
C3918       C  0.75324605  0.80827929  0.06254928     0.03200
O3919       O  0.92042281  0.64858286  0.18698505    -0.77500
C3920       C  0.80776051  0.54137905  0.20276477     0.83500
O3921       O  0.87032040  0.60613519  0.07245777    -0.78700
O3922       O  0.74501350  0.57748239  0.12124336    -0.80100
O3923       O  0.81808958  0.68367743  0.19157306    -0.79900
O3924       O  0.90749204  0.69436272  0.18673186    -0.78600
Zn3925     Zn  0.87390054  0.60672610  0.15845111     1.55700
O3926       O  0.77199108  0.62659716  0.19612082    -0.80000
Cd3927     Cd  0.85911537  0.68135479  0.15843396     1.59700
Cd3928     Cd  0.84476606  0.63509448  0.09380396     1.59600
O3929       O  0.87434032  0.72278428  0.11880454    -0.79900
O3930       O  0.84074082  0.62873519  0.14442073    -1.90500
Cd3931     Cd  0.78508688  0.59451431  0.16257397     1.59900
O3932       O  0.86866515  0.69113913  0.07408026    -0.79900
O3933       O  0.78125746  0.54797224  0.19282165    -0.78600
C3934       C  0.88187377  0.58428218  0.08306886     0.84000
C3935       C  0.92789143  0.68035218  0.19637170     0.83600
O3936       O  0.84191084  0.56217250  0.19214336    -0.77500
C3937       C  0.78663673  0.65962922  0.20470204     0.84400
O3938       O  0.88538988  0.58116452  0.11507935    -0.77600
C3939       C  0.87718250  0.72175758  0.08687792     0.84600
C3940       C  0.75329433  0.58658171  0.08994939     0.84900
O3941       O  0.78789313  0.60651413  0.08043179    -0.80000
N3942       N  0.74115375  0.94737087  0.23311785    -0.02500
C3943       C  0.72614272  0.94952929  0.20333844     0.00100
C3944       C  0.68758064  0.93455493  0.20658506    -0.22800
C3945       C  0.67801861  0.91687424  0.23728780    -0.23000
C3946       C  0.71077576  0.91988772  0.25121182     0.00000
H3947       H  0.66812163  0.92954436  0.18630718     0.13700
H3948       H  0.64958481  0.89717069  0.24456101     0.13800
N3949       N  0.76768163  0.98131107  0.24675408    -0.02500
C3950       C  0.77650438  0.98269397  0.27974532     0.00100
C3951       C  0.80588784  0.51395328  0.28571511    -0.22800
C3952       C  0.82652726  0.52542197  0.25610713    -0.23000
C3953       C  0.80149802  0.51197910  0.23002304     0.00000
H3954       H  0.81533911  0.52727584  0.30928586     0.13700
H3955       H  0.85426230  0.54858404  0.25408683     0.13800
N3956       N  0.74625287  0.71125119  0.23180305    -0.02500
C3957       C  0.73178999  0.69986040  0.20147558     0.00100
C3958       C  0.73200606  0.72769611  0.18302936    -0.22800
C3959       C  0.74248515  0.75559231  0.20415057    -0.23000
C3960       C  0.74822371  0.74466736  0.23548117     0.00000
H3961       H  0.71912210  0.72589915  0.15904534     0.13700
H3962       H  0.73765411  0.77818296  0.19894454     0.13800
N3963       N  0.77133222  0.69913599  0.24492904    -0.02500
C3964       C  0.78290887  0.70514793  0.27694053     0.00100
C3965       C  0.78505178  0.67611312  0.29025080    -0.22800
C3966       C  0.77797818  0.65269711  0.26516670    -0.23000
C3967       C  0.77155851  0.66767468  0.23651587     0.00000
H3968       H  0.80175218  0.67734107  0.31172886     0.13700
H3969       H  0.78602535  0.63181073  0.26595969     0.13800
N3970       N  0.51954986  0.72524221  0.23127962    -0.02500
C3971       C  0.52523913  0.73093851  0.19763722     0.00100
C3972       C  0.54472895  0.71421324  0.18656611    -0.22800
C3973       C  0.55881513  0.70537097  0.21427897    -0.23000
C3974       C  0.54802964  0.71800616  0.24165066     0.00000
H3975       H  0.55725118  0.71906522  0.16201719     0.13700
H3976       H  0.58269659  0.70046517  0.21306740     0.13800
N3977       N  0.98462092  0.69500495  0.23578002    -0.02500
C3978       C  0.96998325  0.67597074  0.26510197     0.00100
C3979       C  0.94423469  0.68548360  0.27819239    -0.22800
C3980       C  0.93553192  0.70157089  0.25225086    -0.23000
C3981       C  0.95529328  0.70020087  0.22440169     0.00000
H3982       H  0.92632173  0.67450464  0.30036707     0.13700
H3983       H  0.90989287  0.70346618  0.25180600     0.13800
C3984       C  0.54337221  0.95217955  0.22934239     0.03200
C3985       C  0.96688918  0.94795552  0.23293277     0.03200
C3986       C  0.94681964  0.96585718  0.22533302     0.03200
C3987       C  0.96581116  0.00293508  0.22140239     0.03200
C3988       C  0.54083029  0.00523057  0.24788778     0.03200
C3989       C  0.56119127  0.98641676  0.24261428     0.03200
N3990       N  0.83509912  0.85435066  0.39367485    -0.02500
C3991       C  0.84827242  0.83664763  0.41356820     0.00100
C3992       C  0.81897304  0.81000152  0.43229459    -0.22800
C3993       C  0.78640579  0.80778903  0.42029760    -0.23000
C3994       C  0.79615951  0.83381609  0.39485763     0.00000
H3995       H  0.82043377  0.78915977  0.44724507     0.13700
H3996       H  0.75844476  0.78617081  0.42658356     0.13800
N3997       N  0.85736402  0.89216651  0.38719844    -0.02500
C3998       C  0.84595383  0.91182057  0.36783871     0.00100
C3999       C  0.87720853  0.94084053  0.35298309    -0.22800
C4000       C  0.90842058  0.94041095  0.36508151    -0.23000
C4001       C  0.89630213  0.91192825  0.38801918     0.00000
H4002       H  0.87829409  0.96377644  0.33963653     0.13700
H4003       H  0.93689961  0.96236369  0.36183950     0.13800
N4004       N  0.60950783  0.87199459  0.41114709    -0.02500
C4005       C  0.62447392  0.89034980  0.43937547     0.00100
C4006       C  0.64872769  0.88046356  0.45431958    -0.22800
C4007       C  0.64997294  0.85568490  0.43468743    -0.23000
C4008       C  0.62710588  0.85095100  0.40734637     0.00000
H4009       H  0.66595224  0.89202810  0.47600785     0.13700
H4010       H  0.66766582  0.84352686  0.43929776     0.13800
N4011       N  0.57564796  0.86840431  0.39651956    -0.02500
C4012       C  0.56001406  0.84514485  0.37137929     0.00100
C4013       C  0.54987221  0.86161454  0.34616676    -0.22800
C4014       C  0.55376001  0.89306875  0.35856967    -0.23000
C4015       C  0.56646147  0.89578371  0.39124986     0.00000
H4016       H  0.02244775  0.83501610  0.33218143     0.13700
H4017       H  0.54149614  0.90832474  0.34716431     0.13800
N4018       N  0.58294404  0.60779585  0.38823080    -0.02500
C4019       C  0.59575531  0.61314336  0.35596338     0.00100
C4020       C  0.56968892  0.58674720  0.33646560    -0.22800
C4021       C  0.54332200  0.56142478  0.35802435    -0.23000
C4022       C  0.55392806  0.57249003  0.39039898     0.00000
H4023       H  0.57457653  0.58154991  0.31095710     0.13700
H4024       H  0.52304816  0.53480522  0.35098750     0.13800
N4025       N  0.58294251  0.63693848  0.40557088    -0.02500
C4026       C  0.55665214  0.63140897  0.42962487     0.00100
C4027       C  0.56377900  0.66278282  0.44382575    -0.22800
C4028       C  0.59564425  0.68907257  0.42891465    -0.23000
C4029       C  0.60648267  0.67419769  0.40332787     0.00000
H4030       H  0.54391078  0.66716789  0.45862921     0.13700
H4031       H  0.60543452  0.71732389  0.43245849     0.13800
C4032       C  0.85898008  0.64495936  0.41856742     0.03200
C4033       C  0.87229813  0.62022294  0.42057271     0.03200
C4034       C  0.84649413  0.58377774  0.42590009     0.03200
C4035       C  0.80860470  0.57277855  0.43359135     0.03200
C4036       C  0.79719929  0.59889841  0.43972454     0.03200
C4037       C  0.82075350  0.63408194  0.42588187     0.03200
O4038       O  0.57537771  0.95517049  0.03213242    -0.77500
C4039       C  0.97697141  0.87689252  0.03104698     0.83500
O4040       O  0.53901686  0.93409457  0.40378995    -0.78700
O4041       O  0.91500104  0.91425590  0.44747808    -0.80100
O4042       O  0.49195916  0.51159059  0.03116033    -0.79900
O4043       O  0.57825216  0.00885066  0.03325739    -0.78600
Zn4044     Zn  0.53341000  0.93075873  0.49156424     1.55700
O4045       O  0.94101410  0.96353781  0.02578040    -0.80000
Cd4046     Cd  0.53273241  0.00430015  0.00204433     1.59700
Cd4047     Cd  0.51108282  0.96249418  0.42208458     1.59600
O4048       O  0.54790537  0.54802792  0.45001620    -0.79900
O4049       O  0.50833103  0.95957602  0.47338328    -1.90500
Cd4050     Cd  0.95452137  0.93151014  0.99202640     1.59900
O4051       O  0.53820586  0.01718021  0.40373166    -0.79900
O4052       O  0.95000479  0.88339555  0.02201941    -0.78600
C4053       C  0.55255739  0.91462281  0.41657027     0.84000
C4054       C  0.58994985  0.98710817  0.04368901     0.83600
O4055       O  0.01074434  0.89839092  0.02032401    -0.77500
C4056       C  0.95545757  0.49723094  0.03336658     0.84400
O4057       O  0.55213053  0.91051116  0.44897165    -0.77600
C4058       C  0.54386822  0.54279257  0.41816314     0.84600
C4059       C  0.92363591  0.91653775  0.41591957     0.84900
O4060       O  0.95804063  0.92877657  0.40638682    -0.80000
O4061       O  0.67201035  0.86074171  0.27722794    -0.77500
C4062       C  0.58102062  0.73988371  0.26548671     0.83500
O4063       O  0.65136201  0.81464635  0.38595201    -0.78700
O4064       O  0.62499659  0.69724039  0.34395264    -0.80100
O4065       O  0.74217416  0.78994563  0.26736377    -0.79900
O4066       O  0.73293475  0.87597149  0.27338699    -0.78600
Zn4067     Zn  0.63841043  0.81173558  0.30407297     1.55700
O4068       O  0.69563198  0.73281597  0.27447373    -0.80000
Cd4069     Cd  0.72972261  0.82540403  0.29821595     1.59700
Cd4070     Cd  0.67657042  0.78698681  0.36523134     1.59600
O4071       O  0.77132807  0.83982998  0.33885499    -0.79900
O4072       O  0.67381295  0.79100633  0.31548498    -1.90500
Cd4073     Cd  0.65102365  0.73749509  0.30225419     1.59900
O4074       O  0.73181805  0.81029245  0.38139136    -0.79900
O4075       O  0.60283860  0.72637062  0.27239544    -0.78600
C4076       C  0.63303045  0.83129553  0.37828493     0.84000
C4077       C  0.70604469  0.88394983  0.26808648     0.83600
O4078       O  0.58925491  0.77141836  0.27612261    -0.77500
C4079       C  0.72840425  0.75587789  0.26214814     0.84400
O4080       O  0.62379668  0.83244774  0.34761151    -0.77600
C4081       C  0.76552916  0.82928121  0.37003689     0.84600
C4082       C  0.62975625  0.70202505  0.37549247     0.84900
O4083       O  0.65024116  0.73399214  0.38541553    -0.80000
C4084       C  0.90370531  0.53973614  0.41032552    -0.26700
C4085       C  0.92518360  0.55221984  0.43945046     0.02900
C4086       C  0.90953490  0.56000860  0.46769255     0.31000
C4087       C  0.87704653  0.56243973  0.46404866    -0.18500
C4088       C  0.86173088  0.55948395  0.43248285    -0.27900
C4089       C  0.87204497  0.54436020  0.40636468     0.45100
C4090       C  0.96626498  0.57099696  0.43591149     0.06200
O4091       O  0.92918769  0.57251342  0.49666021    -0.56400
H4092       H  0.86857484  0.57414570  0.48392641     0.19200
O4093       O  0.85429075  0.53810065  0.37611603    -0.63100
H4094       H  0.91499264  0.53254578  0.38887285     0.17600
C4095       C  0.98846435  0.56871417  0.46154729     0.29900
C4096       C  0.49916400  0.58026450  0.45455988    -0.24000
C4097       C  0.51737942  0.60406874  0.42746084    -0.23300
C4098       C  0.49683410  0.60600365  0.40000376     0.41300
C4099       C  0.98281768  0.59791914  0.41066201    -0.25700
O4100       O  0.97264247  0.54248737  0.48617965    -0.57600
H4101       H  0.51487760  0.57902337  0.47595939     0.17000
O4102       O  0.51408075  0.63170441  0.37489427    -0.59000
H4103       H  0.96583443  0.60093133  0.39128006     0.15400
H4104       H  0.86239267  0.56208171  0.36542688     0.47300
H4105       H  0.97760189  0.55535086  0.50756209     0.42700
H4106       H  0.52763913  0.62274066  0.36057387     0.46100
H4107       H  0.94749865  0.59810975  0.49195279     0.37600
C4108       C  0.76767133  0.67574316  0.38438928    -0.26700
C4109       C  0.74906566  0.64879302  0.36101678     0.02900
C4110       C  0.76343338  0.62580554  0.35281767     0.31000
C4111       C  0.79209565  0.62604955  0.37150292    -0.18500
C4112       C  0.80372380  0.64647954  0.40020616    -0.27900
C4113       C  0.79559820  0.67471089  0.40437891     0.45100
C4114       C  0.70981777  0.63755635  0.35354440     0.06200
O4115       O  0.74818468  0.60210212  0.32749073    -0.56400
H4116       H  0.80195834  0.60707966  0.36616135     0.19200
O4117       O  0.80905701  0.69651233  0.43130183    -0.63100
H4118       H  0.75693551  0.69388012  0.39050636     0.17600
C4119       C  0.68194935  0.60467654  0.36758298     0.29900
C4120       C  0.64474689  0.59698768  0.36746242    -0.24000
C4121       C  0.63446971  0.62023645  0.35084109    -0.23300
C4122       C  0.66124345  0.64913660  0.33104091     0.41300
C4123       C  0.69944825  0.65950207  0.33464236    -0.25700
O4124       O  0.69117258  0.58112793  0.38355401    -0.57600
H4125       H  0.62390190  0.57297266  0.38084361     0.17000
O4126       O  0.65060050  0.66689330  0.30806675    -0.59000
H4127       H  0.72073654  0.68402285  0.32239933     0.15400
H4128       H  0.83195798  0.71809825  0.42262553     0.47300
H4129       H  0.68127539  0.55982596  0.36939049     0.42700
H4130       H  0.63346126  0.64854980  0.29252710     0.46100
H4131       H  0.73715203  0.57782285  0.33819305     0.37600
C4132       C  0.00653907  0.74750324  0.41594894    -0.26700
C4133       C  0.01260696  0.72485133  0.39478853     0.02900
C4134       C  0.03624505  0.74031395  0.36599464     0.31000
C4135       C  0.04954790  0.77671248  0.35723362    -0.18500
C4136       C  0.53298553  0.80713342  0.38077792    -0.27900
C4137       C  0.49788847  0.79971795  0.39456467     0.45100
C4138       C  0.98746592  0.68556747  0.40033746     0.06200
O4139       O  0.04674001  0.72041279  0.34648768    -0.56400
H4140       H  0.06469584  0.78757144  0.33366339     0.19200
O4141       O  0.48779328  0.82608804  0.39555332    -0.63100
H4142       H  0.98769238  0.73690455  0.43767007     0.17600
C4143       C  0.96394522  0.66578452  0.37428230     0.29900
C4144       C  0.92689513  0.63955524  0.38168921    -0.24000
C4145       C  0.91314339  0.63318981  0.41481096    -0.23300
C4146       C  0.93847168  0.64789007  0.44113635     0.41300
C4147       C  0.97634797  0.67220988  0.43356457    -0.25700
O4148       O  0.97481244  0.67533745  0.34146319    -0.57600
H4149       H  0.90741684  0.62796125  0.36149570     0.17000
O4150       O  0.92549224  0.64136556  0.47393351    -0.59000
H4151       H  0.99510637  0.68537478  0.45391501     0.15400
H4152       H  0.47667289  0.82583760  0.37335408     0.47300
H4153       H  0.98690631  0.66078756  0.33516482     0.42700
H4154       H  0.93314063  0.66500056  0.48366113     0.46100
H4155       H  0.06967222  0.72211889  0.35702448     0.37600
C4156       C  0.69355007  0.56271751  0.45454254    -0.26700
C4157       C  0.68804140  0.53029814  0.46900252     0.02900
C4158       C  0.71846027  0.52938307  0.48479411     0.31000
C4159       C  0.75346662  0.56014077  0.48498833    -0.18500
C4160       C  0.76136534  0.58726986  0.46047789    -0.27900
C4161       C  0.73025157  0.59140296  0.45010837     0.45100
C4162       C  0.65917181  0.99241107  0.47459158     0.06200
O4163       O  0.71755769  0.00014423  0.52074206    -0.56400
H4164       H  0.77657795  0.55823649  0.49663279     0.19200
O4165       O  0.73446917  0.62310379  0.43740935    -0.63100
H4166       H  0.66990675  0.56470363  0.44432052     0.17600
C4167       C  0.64130146  0.96200290  0.49634034     0.29900
C4168       C  0.62302257  0.92805726  0.48321996    -0.24000
C4169       C  0.62581960  0.92367696  0.44892240    -0.23300
C4170       C  0.64118702  0.95377997  0.42671591     0.41300
C4171       C  0.65629135  0.98786638  0.43961463    -0.25700
O4172       O  0.64401591  0.96489922  0.53045712    -0.57600
H4173       H  0.61122092  0.90491828  0.50038694     0.17000
O4174       O  0.64472595  0.95051342  0.39285119    -0.59000
H4175       H  0.67019111  0.01069698  0.42219546     0.15400
H4176       H  0.73803289  0.63796638  0.45722425     0.47300
H4177       H  0.65421298  0.94895017  0.53811444     0.42700
H4178       H  0.66533831  0.94441700  0.39030853     0.46100
H4179       H  0.71721165  0.98438509  0.50271597     0.37600
C4180       C  0.76777847  0.44082194  0.36597975    -0.26700
C4181       C  0.75331691  0.43264804  0.39933000     0.02900
C4182       C  0.76380350  0.90960504  0.41586548     0.31000
C4183       C  0.79179896  0.90131539  0.40602881    -0.18500
C4184       C  0.81101190  0.91408874  0.37501479    -0.27900
C4185       C  0.80090589  0.93524664  0.35429179     0.45100
C4186       C  0.75032135  0.46120172  0.41786610     0.06200
O4187       O  0.74117333  0.89236630  0.44335772    -0.56400
H4188       H  0.79924569  0.88626937  0.42366351     0.19200
O4189       O  0.81480210  0.94460340  0.32202526    -0.63100
H4190       H  0.76382642  0.45973197  0.35012075     0.17600
C4191       C  0.77074051  0.47420239  0.44785349     0.29900
C4192       C  0.78515102  0.51006073  0.45531270    -0.24000
C4193       C  0.78130352  0.53379325  0.43281506    -0.23300
C4194       C  0.75556948  0.51986781  0.40668629     0.41300
C4195       C  0.73899450  0.48332993  0.40021878    -0.25700
O4196       O  0.78068069  0.45371966  0.46818262    -0.57600
H4197       H  0.80252127  0.52006647  0.47710755     0.17000
O4198       O  0.74947103  0.54216702  0.38528605    -0.59000
H4199       H  0.72186746  0.47371653  0.37824673     0.15400
H4200       H  0.79666757  0.92489340  0.30821532     0.47300
H4201       H  0.80633233  0.45934049  0.46032506     0.42700
H4202       H  0.76333574  0.54338851  0.36420039     0.46100
H4203       H  0.73164233  0.86638676  0.44021720     0.37600
C4204       C  0.92746980  0.81442349  0.40642781    -0.26700
C4205       C  0.91152657  0.78567386  0.38453842     0.02900
C4206       C  0.87876842  0.78010218  0.36743582     0.31000
C4207       C  0.86186571  0.80113668  0.37416660    -0.18500
C4208       C  0.87508284  0.82610750  0.39957033    -0.27900
C4209       C  0.90792738  0.83235966  0.41611615     0.45100
C4210       C  0.91958240  0.75512368  0.38960059     0.06200
O4211       O  0.85978396  0.75101227  0.34787507    -0.56400
H4212       H  0.83486661  0.79396970  0.36320103     0.19200
O4213       O  0.91845750  0.85213801  0.44443127    -0.63100
H4214       H  0.95180539  0.81903220  0.42019433     0.17600
C4215       C  0.91163921  0.72975378  0.36457287     0.29900
C4216       C  0.89240877  0.69318837  0.37378425    -0.24000
C4217       C  0.88487902  0.68252454  0.40792764    -0.23300
C4218       C  0.90182643  0.70795255  0.43245773     0.41300
C4219       C  0.92028035  0.74414252  0.42304734    -0.25700
O4220       O  0.91773441  0.74018182  0.33120309    -0.57600
H4221       H  0.88169711  0.67340518  0.35450941     0.17000
O4222       O  0.89835489  0.69776112  0.46581898    -0.59000
H4223       H  0.93020633  0.76329581  0.44257283     0.15400
H4224       H  0.90272869  0.83546078  0.46297932     0.47300
H4225       H  0.94512938  0.74949860  0.32714395     0.42700
H4226       H  0.87126657  0.68773656  0.47183936     0.46100
H4227       H  0.83772118  0.73362635  0.36159184     0.37600
C4228       C  0.93581082  0.50815706  0.28501195    -0.26700
C4229       C  0.92342906  0.52494035  0.26142775     0.02900
C4230       C  0.91007973  0.50915655  0.23034263     0.31000
C4231       C  0.44252921  0.53321375  0.25038668    -0.18500
C4232       C  0.93598779  0.46954388  0.24169720    -0.27900
C4233       C  0.94113799  0.47965666  0.27546850     0.45100
C4234       C  0.93593011  0.56321192  0.26469553     0.06200
O4235       O  0.42139806  0.57568344  0.23748535    -0.56400
H4236       H  0.44827722  0.53229481  0.22392381     0.19200
O4237       O  0.95043354  0.99575629  0.29137315    -0.63100
H4238       H  0.94561825  0.51973952  0.30926767     0.17600
C4239       C  0.92097682  0.57586971  0.28926590     0.29900
C4240       C  0.93293788  0.61257841  0.29034504    -0.24000
C4241       C  0.96165080  0.63756382  0.26822522    -0.23300
C4242       C  0.97883596  0.62426218  0.24587900     0.41300
C4243       C  0.96566885  0.58757150  0.24388914    -0.25700
O4244       O  0.89348586  0.55242065  0.31126147    -0.57600
H4245       H  0.91865780  0.62085302  0.30796929     0.17000
O4246       O  0.52205982  0.67724559  0.30545689    -0.59000
H4247       H  0.48910121  0.60827175  0.31552200     0.15400
H4248       H  0.97710475  0.01066357  0.29759031     0.47300
H4249       H  0.90730343  0.54821934  0.32978360     0.42700
H4250       H  0.52585105  0.68851332  0.32757749     0.46100
H4251       H  0.40258749  0.55912396  0.22173152     0.37600
C4252       C  0.57764768  0.88508842  0.22485055    -0.26700
C4253       C  0.57148534  0.87738046  0.19076052     0.02900
C4254       C  0.03176834  0.90528002  0.18831306     0.31000
C4255       C  0.02765155  0.93522117  0.19462779    -0.18500
C4256       C  0.56412708  0.93420465  0.21644983    -0.27900
C4257       C  0.57350227  0.91307373  0.23799214     0.45100
C4258       C  0.56209405  0.84119686  0.18108693     0.06200
O4259       O  0.02498520  0.89235430  0.15648983    -0.56400
H4260       H  0.02109895  0.94827920  0.17393114     0.19200
O4261       O  0.57253080  0.91564138  0.27219188    -0.63100
H4262       H  0.58105939  0.86669831  0.24204160     0.17600
C4263       C  0.58864709  0.82913984  0.18375477     0.29900
C4264       C  0.57636104  0.79242104  0.18499457    -0.24000
C4265       C  0.53762112  0.76758537  0.18410667    -0.23300
C4266       C  0.51170821  0.77987098  0.17717111     0.41300
C4267       C  0.52412102  0.81675497  0.17582964    -0.25700
O4268       O  0.62625003  0.85308283  0.18654950    -0.57600
H4269       H  0.59693033  0.78345093  0.18957277     0.17000
O4270       O  0.99924675  0.76883555  0.26611809    -0.59000
H4271       H  0.99910602  0.82878738  0.25829514     0.15400
H4272       H  0.59833425  0.92216342  0.27962336     0.47300
H4273       H  0.63394826  0.84693480  0.20828923     0.42700
H4274       H  0.02149883  0.77762576  0.28073380     0.46100
H4275       H  0.04555425  0.91085078  0.14197824     0.37600
C4276       C  0.88090648  0.78054241  0.27639904    -0.26700
C4277       C  0.87427059  0.80863366  0.28462932     0.02900
C4278       C  0.83815827  0.80220860  0.29491601     0.31000
C4279       C  0.80852533  0.76721633  0.29605706    -0.18500
C4280       C  0.81444461  0.73980354  0.28400524    -0.27900
C4281       C  0.85103438  0.74644877  0.27472660     0.45100
C4282       C  0.90207664  0.84398510  0.27309352     0.06200
O4283       O  0.83077340  0.83006965  0.29981148    -0.56400
H4284       H  0.78072570  0.76188147  0.30416742     0.19200
O4285       O  0.85741164  0.72023807  0.26183483    -0.63100
H4286       H  0.90862475  0.78574044  0.26773427     0.17600
C4287       C  0.91823173  0.87252708  0.29489834     0.29900
C4288       C  0.94044898  0.90679615  0.28138605    -0.24000
C4289       C  0.94690377  0.91190612  0.24658897    -0.23300
C4290       C  0.93334118  0.88327573  0.22520723     0.41300
C4291       C  0.91033867  0.84924022  0.23850635    -0.25700
O4292       O  0.91159878  0.86727876  0.32891824    -0.57600
H4293       H  0.95197038  0.92943229  0.29775290     0.17000
O4294       O  0.94119321  0.88890915  0.19135848    -0.59000
H4295       H  0.89800797  0.82702832  0.22180342     0.15400
H4296       H  0.86386455  0.70960676  0.28151264     0.47300
H4297       H  0.93266781  0.86407218  0.33781822     0.42700
H4298       H  0.95434933  0.87508665  0.18593138     0.46100
H4299       H  0.83698927  0.83665553  0.32349782     0.37600
C4300       C  0.64228388  0.62038317  0.22382844    -0.26700
C4301       C  0.62413853  0.61983862  0.19390917     0.02900
C4302       C  0.64566109  0.63389023  0.16443406     0.31000
C4303       C  0.68476360  0.65369715  0.16604271    -0.18500
C4304       C  0.70166622  0.66256168  0.19733925    -0.27900
C4305       C  0.68086304  0.64166344  0.22584239     0.45100
C4306       C  0.58296611  0.60293119  0.19497158     0.06200
O4307       O  0.62871289  0.62957246  0.13436212    -0.56400
H4308       H  0.70133819  0.66591946  0.14351003     0.19200
O4309       O  0.69663353  0.64446080  0.25659397    -0.63100
H4310       H  0.62619371  0.60644559  0.24641161     0.17600
C4311       C  0.56310855  0.56812969  0.18304131     0.29900
C4312       C  0.53614816  0.54158810  0.20412709    -0.24000
C4313       C  0.53034729  0.55002635  0.23675747    -0.23300
C4314       C  0.54175924  0.58571091  0.24395467     0.41300
C4315       C  0.56737447  0.61259777  0.22190151    -0.25700
O4316       O  0.57477740  0.55845641  0.15457988    -0.57600
H4317       H  0.52452012  0.51389023  0.19719176     0.17000
O4318       O  0.53148032  0.59444780  0.27361391    -0.59000
H4319       H  0.58104052  0.64003625  0.23001653     0.15400
H4320       H  0.69471863  0.66427918  0.26711821     0.47300
H4321       H  0.59180004  0.54913721  0.16226534     0.42700
H4322       H  0.51839478  0.60813851  0.26685163     0.46100
H4323       H  0.63199956  0.61013953  0.12449824     0.37600
C4324       C  0.62706421  0.99213648  0.31071069    -0.26700
C4325       C  0.66090852  0.00551400  0.29241086     0.02900
C4326       C  0.66256683  0.01514832  0.25791244     0.31000
C4327       C  0.63014552  0.01080672  0.24208071    -0.18500
C4328       C  0.59614209  0.99633709  0.26018105    -0.27900
C4329       C  0.59447045  0.98707448  0.29470956     0.45100
C4330       C  0.69261394  0.00324382  0.30734002     0.06200
O4331       O  0.69460677  0.02484856  0.23877726    -0.56400
H4332       H  0.63102371  0.01682085  0.21534512     0.19200
O4333       O  0.56532454  0.51066208  0.33166965    -0.63100
H4334       H  0.63266362  0.51821665  0.33594552     0.17600
C4335       C  0.72909864  0.03253680  0.30396364     0.29900
C4336       C  0.75948817  0.02592331  0.30211862    -0.24000
C4337       C  0.75326913  0.99041238  0.30318769    -0.23300
C4338       C  0.71838487  0.96285328  0.31522564     0.41300
C4339       C  0.68766489  0.96921492  0.31657494    -0.25700
O4340       O  0.72218688  0.57564109  0.25751482    -0.57600
H4341       H  0.77315926  0.55616039  0.26286180     0.17000
O4342       O  0.71334826  0.92906840  0.32210101    -0.59000
H4343       H  0.65964672  0.94671612  0.32073555     0.15400
H4344       H  0.55307338  0.48419611  0.33438824     0.47300
H4345       H  0.71263774  0.58787358  0.27251113     0.42700
H4346       H  0.70306030  0.92266731  0.34546470     0.46100
H4347       H  0.70351258  0.05009293  0.23124900     0.37600
C4348       C  0.84160262  0.92776034  0.22347147    -0.26700
C4349       C  0.83754823  0.92993896  0.18868168     0.02900
C4350       C  0.86737742  0.93651099  0.16668410     0.31000
C4351       C  0.90232356  0.94470111  0.17948643    -0.18500
C4352       C  0.90769677  0.94662349  0.21421156    -0.27900
C4353       C  0.87680764  0.93610980  0.23644827     0.45100
C4354       C  0.80456021  0.93136700  0.17598519     0.06200
O4355       O  0.86300775  0.93698196  0.13268620    -0.56400
H4356       H  0.92594645  0.95170161  0.16236588     0.19200
O4357       O  0.88120743  0.93546663  0.27054271    -0.63100
H4358       H  0.81829956  0.92224051  0.24053880     0.17600
C4359       C  0.76866543  0.90137900  0.17886303     0.29900
C4360       C  0.73709290  0.90622433  0.17576841    -0.24000
C4361       C  0.74195643  0.94130863  0.17389873    -0.23300
C4362       C  0.77653854  0.96897088  0.16188512     0.41300
C4363       C  0.80859571  0.96459578  0.16474930    -0.25700
O4364       O  0.76433071  0.86821793  0.18779178    -0.57600
H4365       H  0.70990523  0.88396845  0.18321650     0.17000
O4366       O  0.77872867  0.00038377  0.14950896    -0.59000
H4367       H  0.83634490  0.98733502  0.16003929     0.15400
H4368       H  0.87405397  0.95295743  0.27944094     0.47300
H4369       H  0.75981152  0.86564624  0.21248175     0.42700
H4370       H  0.79902257  0.01037961  0.13196478     0.46100
H4371       H  0.84197090  0.91286919  0.12816838     0.37600
C4372       C  0.80982021  0.75867913  0.12784865    -0.26700
C4373       C  0.82320700  0.78631922  0.15110209     0.02900
C4374       C  0.80307417  0.80521553  0.15605207     0.31000
C4375       C  0.77326190  0.79945267  0.13498963    -0.18500
C4376       C  0.76328550  0.77510479  0.10882658    -0.27900
C4377       C  0.78066024  0.75350451  0.10614612     0.45100
C4378       C  0.86358972  0.80257287  0.15939979     0.06200
O4379       O  0.81420948  0.83149936  0.17932691    -0.52500
H4380       H  0.75969279  0.81592881  0.13743757     0.19200
O4381       O  0.77358319  0.73169262  0.07927561    -0.63100
H4382       H  0.82528602  0.74437890  0.12312944     0.17600
C4383       C  0.88770382  0.83609759  0.14355655     0.29900
C4384       C  0.92007430  0.84066615  0.12714640    -0.24000
C4385       C  0.93010638  0.81351153  0.12907169    -0.23300
C4386       C  0.91361818  0.78663565  0.15428553     0.41300
C4387       C  0.87897460  0.78009929  0.16861652    -0.25700
O4388       O  0.87665350  0.86155697  0.13802825    -0.57600
H4389       H  0.93503204  0.86366110  0.11006005     0.17000
O4390       O  0.92807712  0.76401372  0.16136291    -0.59000
H4391       H  0.86209552  0.75533402  0.18291250     0.15400
H4392       H  0.76751569  0.70771390  0.08890112     0.47300
H4393       H  0.80510647  0.74753198  0.49250952     0.42700
H4394       H  0.94702674  0.77604562  0.17886012     0.46100
H4395       H  0.81375262  0.81975223  0.20132316     0.37600
C4396       C  0.56199022  0.84745057  0.02461614    -0.26700
C4397       C  0.57475135  0.84058877  0.05539426     0.02900
C4398       C  0.54814643  0.82165850  0.08143071     0.31000
C4399       C  0.95623055  0.75960930  0.00490578    -0.18500
C4400       C  0.94786996  0.78752274  0.99864589    -0.27900
C4401       C  0.97458236  0.81899794  0.98137283     0.45100
C4402       C  0.61326351  0.84475132  0.05777248     0.06200
O4403       O  0.55867149  0.81153835  0.11063384    -0.56400
H4404       H  0.93557925  0.73480463  0.01735917     0.19200
O4405       O  0.96570850  0.84531840  0.97219342    -0.63100
H4406       H  0.58189007  0.86259620  0.00444048     0.17600
C4407       C  0.62646783  0.83070187  0.03248557     0.29900
C4408       C  0.65553753  0.82319385  0.03928249    -0.24000
C4409       C  0.67220592  0.82932487  0.07079899    -0.23300
C4410       C  0.66199371  0.84657956  0.09497072     0.41300
C4411       C  0.63294138  0.85469892  0.08823992    -0.25700
O4412       O  0.60843654  0.82007201  0.00250167    -0.57600
H4413       H  0.66199242  0.80853038  0.02104371     0.17000
O4414       O  0.67870900  0.85376268  0.12566492    -0.59000
H4415       H  0.62380828  0.86608647  0.10791030     0.15400
H4416       H  0.98209579  0.85931028  0.95274928     0.47300
H4417       H  0.59054308  0.79410428  0.00582847     0.42700
H4418       H  0.66382881  0.83170914  0.13979698     0.46100
H4419       H  0.55761810  0.78826225  0.10609258     0.37600
C4420       C  0.85203543  0.85705151  0.02766043    -0.26700
C4421       C  0.84187278  0.87562391  0.00397970     0.02900
C4422       C  0.80640088  0.85627085  0.98940438     0.31000
C4423       C  0.77926827  0.82473093  0.00520591    -0.18500
C4424       C  0.78527700  0.81774827  0.03836513    -0.27900
C4425       C  0.82314428  0.83037962  0.04777379     0.45100
C4426       C  0.85551757  0.91429296  0.00917580     0.06200
O4427       O  0.79521760  0.87100961  0.96419550    -0.56400
H4428       H  0.75104984  0.81157007  0.99544583     0.19200
O4429       O  0.83234367  0.82276536  0.07859113    -0.63100
H4430       H  0.88028881  0.86992477  0.03740700     0.17600
C4431       C  0.85409997  0.92569487  0.04189864     0.29900
C4432       C  0.85886329  0.95965654  0.04688269    -0.24000
C4433       C  0.86997255  0.98481748  0.02036735    -0.23300
C4434       C  0.86996937  0.97361804  0.98719274     0.41300
C4435       C  0.86273912  0.93842619  0.98193605    -0.25700
O4436       O  0.84722610  0.90353333  0.06950555    -0.57600
H4437       H  0.85643378  0.96722860  0.07220838     0.17000
O4438       O  0.87758861  0.99680832  0.96002629    -0.59000
H4439       H  0.86171857  0.92975335  0.95650549     0.15400
H4440       H  0.83172396  0.84097981  0.09311255     0.47300
H4441       H  0.87254304  0.90880248  0.07737853     0.42700
H4442       H  0.90145895  0.47118491  0.97019125     0.46100
H4443       H  0.79134094  0.88984583  0.97464478     0.37600
C4444       C  0.52586139  0.63447636  0.14381681    -0.26700
C4445       C  0.54269656  0.65492780  0.11409837     0.02900
C4446       C  0.53133399  0.63875494  0.08284862     0.31000
C4447       C  0.50604371  0.60239343  0.08180827    -0.18500
C4448       C  0.48928333  0.58193851  0.11132030    -0.27900
C4449       C  0.49865988  0.59830218  0.14249030     0.45100
C4450       C  0.57455944  0.69175941  0.11571663     0.06200
O4451       O  0.54714459  0.65740721  0.05324977    -0.56400
H4452       H  0.49992956  0.58999206  0.05757837     0.19200
O4453       O  0.94727314  0.57739079  0.16383129    -0.63100
H4454       H  0.53403216  0.64639143  0.16809608     0.17600
C4455       C  0.57598925  0.72018198  0.09572397     0.29900
C4456       C  0.60954748  0.75252989  0.09262432    -0.24000
C4457       C  0.64184473  0.75768434  0.11015906    -0.23300
C4458       C  0.63666986  0.73240235  0.13624953     0.41300
C4459       C  0.60429802  0.69886344  0.13746260    -0.25700
O4460       O  0.54551073  0.71604446  0.07758612    -0.57600
H4461       H  0.61019332  0.77107123  0.07375125     0.17000
O4462       O  0.66554719  0.73821420  0.15726529    -0.59000
H4463       H  0.60297189  0.67814454  0.15472104     0.15400
H4464       H  0.92500707  0.57883127  0.17246312     0.47300
H4465       H  0.52822672  0.71806988  0.09410652     0.42700
H4466       H  0.65889670  0.74531603  0.17874093     0.46100
H4467       H  0.52631777  0.65833665  0.04102415     0.37600
C4468       C  0.62186486  0.61551870  0.00706996    -0.26700
C4469       C  0.61051067  0.61967663  0.03877874     0.02900
C4470       C  0.60003562  0.59116542  0.06195376     0.31000
C4471       C  0.62227164  0.57455806  0.06123776    -0.18500
C4472       C  0.64198038  0.57604079  0.03114232    -0.27900
C4473       C  0.63484342  0.59134297  0.00216339     0.45100
C4474       C  0.63379026  0.65574113  0.05122318     0.06200
O4475       O  0.57653290  0.58572588  0.08914406    -0.56400
H4476       H  0.62764343  0.56540314  0.08500007     0.19200
O4477       O  0.65009372  0.59146737  0.97133267    -0.63100
H4478       H  0.62934881  0.63614166  0.98860776     0.17600
C4479       C  0.66547649  0.66360064  0.07135322     0.29900
C4480       C  0.68536299  0.69701733  0.08464448    -0.24000
C4481       C  0.67860352  0.72448016  0.07415655    -0.23300
C4482       C  0.65221036  0.71851930  0.04862051     0.41300
C4483       C  0.62876448  0.68391043  0.03853855    -0.25700
O4484       O  0.67830001  0.63954689  0.07743079    -0.57600
H4485       H  0.70713041  0.70198531  0.10227845     0.17000
O4486       O  0.64949977  0.74620925  0.03304139    -0.59000
H4487       H  0.60785899  0.67935265  0.01978923     0.15400
H4488       H  0.62850100  0.58076960  0.95599144     0.47300
H4489       H  0.70084544  0.64762308  0.06250810     0.42700
H4490       H  0.66674374  0.75317910  0.01313355     0.46100
H4491       H  0.57646357  0.60855148  0.09314313     0.37600
C4492       C  0.69247451  0.93473478  0.04833601    -0.26700
C4493       C  0.73186281  0.95214434  0.05039861     0.02900
C4494       C  0.75005293  0.98508358  0.06645440     0.31000
C4495       C  0.72861898  0.99763858  0.08363567    -0.18500
C4496       C  0.68922802  0.98006507  0.08191715    -0.27900
C4497       C  0.67127385  0.94816952  0.06387645     0.45100
C4498       C  0.75104075  0.93072136  0.04348545     0.06200
O4499       O  0.78866464  0.00404269  0.06705382    -0.56400
H4500       H  0.74307241  0.02035478  0.09899999     0.19200
O4501       O  0.63311210  0.93128218  0.05906242    -0.63100
H4502       H  0.67766983  0.90961192  0.03573338     0.17600
C4503       C  0.76890006  0.92283188  0.07004405     0.29900
C4504       C  0.76846207  0.89006262  0.07214490    -0.24000
C4505       C  0.74975064  0.86454415  0.04827342    -0.23300
C4506       C  0.73767991  0.87442990  0.01867735     0.41300
C4507       C  0.73938264  0.90811296  0.01623103    -0.25700
O4508       O  0.77838067  0.94253853  0.09801159    -0.57600
H4509       H  0.77721119  0.88246415  0.09530719     0.17000
O4510       O  0.72155103  0.85015122  0.99371630    -0.59000
H4511       H  0.72564431  0.91398576  0.99583980     0.15400
H4512       H  0.62186781  0.91444298  0.07860074     0.47300
H4513       H  0.75381222  0.93339433  0.11000625     0.42700
H4514       H  0.70111657  0.85376237  0.98385165     0.46100
H4515       H  0.79586496  0.02480603  0.05120716     0.37600
N4516       N  0.65236769  0.52037133  0.57115543    -0.02500
C4517       C  0.65849525  0.01049085  0.59935825     0.00100
C4518       C  0.62610120  0.00169453  0.61825937    -0.22800
C4519       C  0.59901444  0.99761048  0.59578242    -0.23000
C4520       C  0.61692323  0.00965054  0.56490883     0.00000
H4521       H  0.61938657  0.98877128  0.64295469     0.13700
H4522       H  0.56890183  0.98378063  0.60081715     0.13800
N4523       N  0.67866704  0.55739683  0.56214991    -0.02500
C4524       C  0.67023887  0.57789798  0.54026457     0.00100
C4525       C  0.70257043  0.60665067  0.52746776    -0.22800
C4526       C  0.73196873  0.60629337  0.54310158    -0.23000
C4527       C  0.71801317  0.57747328  0.56600680     0.00000
H4528       H  0.70474586  0.62854108  0.51159764     0.13700
H4529       H  0.76079379  0.62772068  0.54042705     0.13800
N4530       N  0.93460703  0.52649863  0.57759375    -0.02500
C4531       C  0.94959963  0.54305036  0.60644052     0.00100
C4532       C  0.97097121  0.52946973  0.62121583    -0.22800
C4533       C  0.97112588  0.50484675  0.59996434    -0.23000
C4534       C  0.95037850  0.50383016  0.57220957     0.00000
H4535       H  0.47851111  0.54200539  0.63803116     0.13700
H4536       H  0.98852195  0.49201653  0.60259703     0.13800
N4537       N  0.90151354  0.52585576  0.56338479    -0.02500
C4538       C  0.88046356  0.50088719  0.54088875     0.00100
C4539       C  0.85376059  0.50785973  0.52712436    -0.22800
C4540       C  0.85666786  0.53727582  0.54207859    -0.23000
C4541       C  0.88440712  0.54812541  0.56607111     0.00000
H4542       H  0.83140155  0.49083097  0.51091891     0.13700
H4543       H  0.83772508  0.54805091  0.53753567     0.13800
N4544       N  0.90877348  0.77331310  0.55073751    -0.02500
C4545       C  0.91393518  0.77821747  0.51698774     0.00100
C4546       C  0.88247156  0.75256713  0.50140797    -0.22800
C4547       C  0.86243420  0.72617921  0.52512394    -0.23000
C4548       C  0.88014856  0.73771170  0.55533035     0.00000
H4549       H  0.87828679  0.74955220  0.47472248     0.13700
H4550       H  0.83953902  0.69980691  0.52013021     0.13800
N4551       N  0.91166306  0.80299505  0.56942899    -0.02500
C4552       C  0.88449267  0.79907894  0.59191265     0.00100
C4553       C  0.89526189  0.83037083  0.60835186    -0.22800
C4554       C  0.92888090  0.85536481  0.59367460    -0.23000
C4555       C  0.93809420  0.83961559  0.56769696     0.00000
H4556       H  0.87744067  0.83634682  0.62442438     0.13700
H4557       H  0.94100091  0.88396254  0.59686923     0.13800
C4558       C  0.68069806  0.80136030  0.55035091     0.03200
C4559       C  0.64220180  0.78893382  0.55038763     0.03200
C4560       C  0.61836763  0.75417169  0.56192459     0.03200
C4561       C  0.63028747  0.72825449  0.56021209     0.03200
C4562       C  0.66814282  0.73924934  0.55182678     0.03200
C4563       C  0.69414030  0.77639801  0.55015106     0.03200
O4564       O  0.92219363  0.64782553  0.69063456    -0.77500
C4565       C  0.80537052  0.53436039  0.70273749     0.83500
O4566       O  0.86664833  0.59336617  0.57855098    -0.78700
O4567       O  0.74128271  0.57460336  0.62399043    -0.80100
O4568       O  0.81902372  0.68323565  0.68923295    -0.79900
O4569       O  0.90914168  0.69318982  0.68424416    -0.78600
Zn4570     Zn  0.87433448  0.60291654  0.66323665     1.55700
O4571       O  0.77348340  0.62624175  0.69669060    -0.80000
Cd4572     Cd  0.85931123  0.67703192  0.65713956     1.59700
Cd4573     Cd  0.83912110  0.62250647  0.59567484     1.59600
O4574       O  0.87556956  0.71492919  0.61432071    -0.79900
O4575       O  0.83932336  0.62271952  0.64637503    -1.90500
Cd4576     Cd  0.78354906  0.59032211  0.66450694     1.59900
O4577       O  0.86159459  0.67634835  0.57344658    -0.79900
O4578       O  0.77949007  0.54182348  0.69231429    -0.78600
C4579       C  0.88188068  0.57504564  0.59078163     0.84000
C4580       C  0.93022257  0.68086418  0.69613827     0.83600
O4581       O  0.84035336  0.55644487  0.69510200    -0.77500
C4582       C  0.78752266  0.65997215  0.70312421     0.84400
O4583       O  0.88803950  0.57622424  0.62261899    -0.77600
C4584       C  0.87330735  0.70879225  0.58285526     0.84600
C4585       C  0.74748799  0.58001456  0.59196730     0.84900
O4586       O  0.78174227  0.59528867  0.58046905    -0.80000
N4587       N  0.74998153  0.94705772  0.71815139    -0.02500
C4588       C  0.74095614  0.94811167  0.68560236     0.00100
C4589       C  0.70234040  0.93201432  0.68316885    -0.22800
C4590       C  0.68738853  0.91385490  0.71310038    -0.23000
C4591       C  0.71743019  0.91975193  0.73330948     0.00000
H4592       H  0.68681038  0.92760008  0.66048697     0.13700
H4593       H  0.65841353  0.89305151  0.71673632     0.13800
N4594       N  0.77183278  0.98130423  0.73273053    -0.02500
C4595       C  0.77055456  0.98524392  0.76611317     0.00100
C4596       C  0.79332779  0.50022197  0.78265818    -0.22800
C4597       C  0.81826366  0.51268259  0.75577542    -0.23000
C4598       C  0.79692606  0.50163374  0.72710558     0.00000
H4599       H  0.79907351  0.51264511  0.80676582     0.13700
H4600       H  0.84593610  0.53576048  0.75701909     0.13800
N4601       N  0.75772715  0.72491576  0.72192858    -0.02500
C4602       C  0.75685973  0.72624429  0.68799514     0.00100
C4603       C  0.77578395  0.76162414  0.67657571    -0.22800
C4604       C  0.78119381  0.78227741  0.70394962    -0.23000
C4605       C  0.76505672  0.75889889  0.73129317     0.00000
H4606       H  0.77718457  0.77107018  0.65091203     0.13700
H4607       H  0.78761290  0.81004151  0.70238372     0.13800
N4608       N  0.77427278  0.70498563  0.73769984    -0.02500
C4609       C  0.78200235  0.70851507  0.77086253     0.00100
C4610       C  0.77154436  0.67561939  0.78574660    -0.22800
C4611       C  0.76230695  0.65180333  0.76042986    -0.23000
C4612       C  0.76753348  0.67063675  0.73017857     0.00000
H4613       H  0.78047673  0.67174082  0.81028694     0.13700
H4614       H  0.76262638  0.62666181  0.76366319     0.13800
N4615       N  0.53104623  0.73266672  0.72067982    -0.02500
C4616       C  0.53766675  0.75140195  0.69085628     0.00100
C4617       C  0.57323685  0.76163616  0.67867386    -0.22800
C4618       C  0.58922743  0.74799447  0.70013206    -0.23000
C4619       C  0.56555222  0.73399691  0.72808425     0.00000
H4620       H  0.58804753  0.78098742  0.65839332     0.13700
H4621       H  0.61911423  0.75627825  0.69901048     0.13800
N4622       N  0.99125848  0.70714610  0.73510523    -0.02500
C4623       C  0.98491885  0.70421604  0.76897525     0.00100
C4624       C  0.95775685  0.71377698  0.77704415    -0.22800
C4625       C  0.94045609  0.71352590  0.74774291    -0.23000
C4626       C  0.95828182  0.70526096  0.72239438     0.00000
H4627       H  0.94454293  0.71061631  0.80153453     0.13700
H4628       H  0.91271189  0.71112223  0.74657236     0.13800
C4629       C  0.51048025  0.93168097  0.73153528     0.03200
C4630       C  0.98342390  0.93652772  0.71585004     0.03200
C4631       C  0.96294297  0.95274347  0.72813048     0.03200
C4632       C  0.98159346  0.98516382  0.74452711     0.03200
C4633       C  0.50558895  0.98469422  0.74290263     0.03200
C4634       C  0.52752049  0.96779948  0.73886450     0.03200
N4635       N  0.83569030  0.86911073  0.89561198    -0.02500
C4636       C  0.84905852  0.85178614  0.91564236     0.00100
C4637       C  0.81960877  0.82069536  0.92935485    -0.22800
C4638       C  0.78744408  0.81717648  0.91547850    -0.23000
C4639       C  0.79723147  0.84589167  0.89297461     0.00000
H4640       H  0.82154003  0.79953859  0.94342751     0.13700
H4641       H  0.76021551  0.79337694  0.91847594     0.13800
N4642       N  0.85886106  0.90556602  0.88435184    -0.02500
C4643       C  0.84770425  0.92426299  0.86312970     0.00100
C4644       C  0.87881874  0.95544989  0.85170287    -0.22800
C4645       C  0.90912311  0.95782611  0.86858701    -0.23000
C4646       C  0.89699144  0.92794308  0.88986128     0.00000
H4647       H  0.87879241  0.97756681  0.83763068     0.13700
H4648       H  0.93653181  0.98145489  0.86856898     0.13800
N4649       N  0.61726231  0.88304429  0.90377657    -0.02500
C4650       C  0.63384795  0.90455539  0.92971393     0.00100
C4651       C  0.66359715  0.90077302  0.94148151    -0.22800
C4652       C  0.66698394  0.87714411  0.92141698    -0.23000
C4653       C  0.63988819  0.86715147  0.89717148     0.00000
H4654       H  0.68305991  0.91638389  0.96049147     0.13700
H4655       H  0.68816676  0.86877670  0.92325488     0.13800
N4656       N  0.57970360  0.87329349  0.89347531    -0.02500
C4657       C  0.56325442  0.84867458  0.86986816     0.00100
C4658       C  0.53983223  0.85641155  0.85057539    -0.22800
C4659       C  0.53813146  0.88428073  0.86559794    -0.23000
C4660       C  0.56043636  0.89307389  0.89390371     0.00000
H4661       H  0.02376965  0.85577768  0.82116100     0.13700
H4662       H  0.51854349  0.89382375  0.85893265     0.13800
N4663       N  0.58101243  0.61262571  0.89204938    -0.02500
C4664       C  0.56716837  0.60919537  0.86059693     0.00100
C4665       C  0.52864112  0.58867975  0.86161302    -0.22800
C4666       C  0.51859081  0.57471152  0.89363528    -0.23000
C4667       C  0.55149763  0.58518623  0.91120990     0.00000
H4668       H  0.51125353  0.57750675  0.84020442     0.13700
H4669       H  0.49154496  0.55174538  0.90016071     0.13800
N4670       N  0.60482901  0.64894933  0.90288438    -0.02500
C4671       C  0.60958099  0.65575046  0.93604083     0.00100
C4672       C  0.64670898  0.67943316  0.94214249    -0.22800
C4673       C  0.66558562  0.68765700  0.91197198    -0.23000
C4674       C  0.63861446  0.67446046  0.88726208     0.00000
H4675       H  0.65803670  0.69321567  0.96520653     0.13700
H4676       H  0.69399360  0.70974441  0.90849191     0.13800
C4677       C  0.81954112  0.64305253  0.89559048     0.03200
C4678       C  0.84109478  0.62582995  0.90322513     0.03200
C4679       C  0.82327611  0.58812848  0.90612029     0.03200
C4680       C  0.78375224  0.56915973  0.90685297     0.03200
C4681       C  0.76401701  0.58833605  0.91082568     0.03200
C4682       C  0.78013460  0.62353011  0.89798545     0.03200
O4683       O  0.57785105  0.96560844  0.52393194    -0.77500
C4684       C  0.95686387  0.86594756  0.53746371     0.83500
O4685       O  0.53529099  0.93076892  0.91240609    -0.78700
O4686       O  0.91687982  0.91942002  0.94781070    -0.80100
O4687       O  0.48827162  0.51480879  0.52484860    -0.79900
O4688       O  0.57958379  0.01868368  0.52167194    -0.78600
Zn4689     Zn  0.53153211  0.92264681  0.99884560     1.55700
O4690       O  0.94338788  0.96105791  0.52529634    -0.80000
Cd4691     Cd  0.53486661  0.01269741  0.48916790     1.59700
Cd4692     Cd  0.50668109  0.95637292  0.93396662     1.59600
O4693       O  0.55035399  0.55003937  0.96190552    -0.79900
O4694       O  0.50556453  0.95221538  0.98508899    -1.90500
Cd4695     Cd  0.95134303  0.92626811  0.49152367     1.59900
O4696       O  0.52855178  0.01031205  0.91546738    -0.79900
O4697       O  0.93714755  0.87797383  0.52185608    -0.78600
C4698       C  0.54976219  0.91111342  0.92229534     0.84000
C4699       C  0.59233424  0.99831656  0.53345920     0.83600
O4700       O  0.99302461  0.88146918  0.53204246    -0.77500
C4701       C  0.96223784  0.49182439  0.54017451     0.84400
O4702       O  0.55082958  0.90487690  0.95423834    -0.77600
C4703       C  0.55068777  0.55199631  0.92966034     0.84600
C4704       C  0.92507125  0.92942262  0.91645286     0.84900
O4705       O  0.95953722  0.94685157  0.90653051    -0.80000
O4706       O  0.67858795  0.86557395  0.76606068    -0.77500
C4707       C  0.59139739  0.74917766  0.75819992     0.83500
O4708       O  0.65501196  0.82223656  0.88052109    -0.78700
O4709       O  0.64881348  0.70733007  0.83302641    -0.80100
O4710       O  0.75397665  0.80132987  0.76321507    -0.79900
O4711       O  0.73962051  0.88102666  0.76413498    -0.78600
Zn4712     Zn  0.64700462  0.82000966  0.79704714     1.55700
O4713       O  0.70687616  0.74463816  0.76359232    -0.80000
Cd4714     Cd  0.73712136  0.83400668  0.79308569     1.59700
Cd4715     Cd  0.67809988  0.79232525  0.85978450     1.59600
O4716       O  0.77555112  0.85135320  0.83569386    -0.79900
O4717       O  0.68138611  0.79899345  0.80939631    -1.90500
Cd4718     Cd  0.66267638  0.74736798  0.79307761     1.59900
O4719       O  0.73372002  0.81900660  0.87623724    -0.79900
O4720       O  0.61276249  0.73505154  0.76495390    -0.78600
C4721       C  0.64183605  0.84278129  0.87041127     0.84000
C4722       C  0.71252608  0.88763976  0.75611079     0.83600
O4723       O  0.59910299  0.78011160  0.76982902    -0.77500
C4724       C  0.74074904  0.76825154  0.75477300     0.84400
O4725       O  0.63509886  0.84446669  0.83907298    -0.77600
C4726       C  0.76786408  0.84037714  0.86666451     0.84600
C4727       C  0.64426800  0.70708214  0.86480643     0.84900
O4728       O  0.65158727  0.73682444  0.87857707    -0.80000
C4729       C  0.87796485  0.53703817  0.89871464    -0.26700
C4730       C  0.90292445  0.55183640  0.92544341     0.02900
C4731       C  0.89624224  0.57304960  0.94845318     0.31000
C4732       C  0.86603110  0.57945219  0.94412806    -0.18500
C4733       C  0.84580796  0.57016063  0.91449447    -0.27900
C4734       C  0.85057061  0.54745146  0.89229913     0.45100
C4735       C  0.94059402  0.55408974  0.92371976     0.06200
O4736       O  0.92141480  0.59142062  0.97287559    -0.56400
H4737       H  0.86147775  0.59583325  0.96196185     0.19200
O4738       O  0.83028478  0.53709077  0.86347931    -0.63100
H4739       H  0.88245493  0.52071498  0.88071613     0.17600
C4740       C  0.96028122  0.55539645  0.95317571     0.29900
C4741       C  0.55322532  0.62263206  0.97373753    -0.24000
C4742       C  0.57857687  0.65430880  0.95668745    -0.23300
C4743       C  0.56873404  0.68137070  0.95191044     0.41300
C4744       C  0.96083429  0.56626881  0.89311652    -0.25700
O4745       O  0.94093347  0.53972381  0.98265920    -0.57600
H4746       H  0.56139810  0.60323503  0.98085083     0.17000
O4747       O  0.59397612  0.71379310  0.93744257    -0.59000
H4748       H  0.94652550  0.56568816  0.87006664     0.15400
H4749       H  0.84430064  0.55706510  0.84685170     0.47300
H4750       H  0.95169434  0.55804920  0.00007327     0.42700
H4751       H  0.58895293  0.71113983  0.91305287     0.46100
H4752       H  0.93849404  0.61541960  0.96255218     0.37600
C4753       C  0.71085796  0.64832655  0.85830830    -0.26700
C4754       C  0.69741291  0.62294596  0.83307182     0.02900
C4755       C  0.71650223  0.60380153  0.82590504     0.31000
C4756       C  0.74812508  0.60970060  0.84416632    -0.18500
C4757       C  0.75772559  0.63060194  0.87277309    -0.27900
C4758       C  0.73996391  0.65134296  0.87906864     0.45100
C4759       C  0.65884510  0.61080389  0.82141839     0.06200
O4760       O  0.70335793  0.57825853  0.80210555    -0.56400
H4761       H  0.76322023  0.59541980  0.83792826     0.19200
O4762       O  0.74752547  0.67117832  0.90728526    -0.63100
H4763       H  0.69603675  0.66289978  0.86430599     0.17600
C4764       C  0.63011422  0.57762679  0.83441066     0.29900
C4765       C  0.59434093  0.57368480  0.83994598    -0.24000
C4766       C  0.58794562  0.60275818  0.83389442    -0.23300
C4767       C  0.61252180  0.63102625  0.81262253     0.41300
C4768       C  0.64917177  0.63589258  0.80727069    -0.25700
O4769       O  0.63879058  0.55270780  0.84856312    -0.57600
H4770       H  0.57405788  0.55068972  0.85482127     0.17000
O4771       O  0.60140345  0.65509312  0.80069105    -0.59000
H4772       H  0.67084208  0.66072318  0.79572689     0.15400
H4773       H  0.75943612  0.69653113  0.89897414     0.47300
H4774       H  0.61673951  0.52864226  0.84593545     0.42700
H4775       H  0.62035549  0.67127182  0.78365508     0.46100
H4776       H  0.69518217  0.55508131  0.81449393     0.37600
C4777       C  0.97509928  0.77089359  0.90544312    -0.26700
C4778       C  0.98413297  0.74359808  0.89890681     0.02900
C4779       C  0.01790544  0.75263458  0.88106901     0.31000
C4780       C  0.03933569  0.78713359  0.86686356    -0.18500
C4781       C  0.56096671  0.81297054  0.87249586    -0.27900
C4782       C  0.56777571  0.79993775  0.90344432     0.45100
C4783       C  0.95477295  0.70587992  0.90610038     0.06200
O4784       O  0.03056789  0.72824790  0.87756533    -0.56400
H4785       H  0.06231533  0.79187392  0.85022011     0.19200
O4786       O  0.57216286  0.81743951  0.93287360    -0.63100
H4787       H  0.94926095  0.76499451  0.91878504     0.17600
C4788       C  0.94300345  0.68049311  0.88063680     0.29900
C4789       C  0.90659518  0.65160414  0.88158286    -0.24000
C4790       C  0.88192924  0.64770726  0.90790171    -0.23300
C4791       C  0.89541831  0.66902708  0.93611778     0.41300
C4792       C  0.93180868  0.69791386  0.93505620    -0.25700
O4793       O  0.96506692  0.68560554  0.85287419    -0.57600
H4794       H  0.89651800  0.63444643  0.86019569     0.17000
O4795       O  0.87178573  0.66434905  0.96291837    -0.59000
H4796       H  0.94036367  0.71626081  0.95527609     0.15400
H4797       H  0.54634290  0.80803905  0.94230864     0.47300
H4798       H  0.97510066  0.66865490  0.85662019     0.42700
H4799       H  0.88215829  0.65706615  0.98230449     0.46100
H4800       H  0.03772384  0.72436376  0.90044135     0.37600
C4801       C  0.67214611  0.54058242  0.95664462    -0.26700
C4802       C  0.68313352  0.52098952  0.97840149     0.02900
C4803       C  0.72078291  0.53631246  0.98812844     0.31000
C4804       C  0.74772313  0.56594281  0.96944343    -0.18500
C4805       C  0.73716115  0.57695962  0.93959058    -0.27900
C4806       C  0.69908249  0.56671913  0.93497310     0.45100
C4807       C  0.65297542  0.00768707  0.95151210     0.06200
O4808       O  0.72120257  0.03772183  0.99044755    -0.56400
H4809       H  0.77728605  0.57519478  0.97421651     0.19200
O4810       O  0.68737334  0.57640640  0.90631385    -0.63100
H4811       H  0.64277891  0.52908710  0.94983451     0.17600
C4812       C  0.64480603  0.98202929  0.97734828     0.29900
C4813       C  0.63356015  0.94663917  0.96995177    -0.24000
C4814       C  0.63178262  0.93689313  0.93656794    -0.23300
C4815       C  0.63715774  0.96169498  0.91028459     0.41300
C4816       C  0.64679384  0.99672265  0.91800973    -0.25700
O4817       O  0.65146314  0.99220931  0.00971564    -0.57600
H4818       H  0.62979688  0.92758369  0.99019863     0.17000
O4819       O  0.63456011  0.95207948  0.87723307    -0.59000
H4820       H  0.65328773  0.01602423  0.89738041     0.15400
H4821       H  0.68684291  0.55945526  0.88944617     0.47300
H4822       H  0.67222104  0.98767815  0.01648146     0.42700
H4823       H  0.65686607  0.97107648  0.86490153     0.46100
H4824       H  0.74093036  0.05308898  0.00614286     0.37600
C4825       C  0.75769614  0.43031630  0.84812788    -0.26700
C4826       C  0.74497952  0.42716115  0.88176694     0.02900
C4827       C  0.76908023  0.92834545  0.90892393     0.31000
C4828       C  0.79610892  0.91865620  0.89990080    -0.18500
C4829       C  0.81178886  0.92512779  0.86764457    -0.27900
C4830       C  0.79870301  0.94086294  0.84334846     0.45100
C4831       C  0.74188691  0.45787326  0.89560349     0.06200
O4832       O  0.75310363  0.91930797  0.94041877    -0.56400
H4833       H  0.80749954  0.90906889  0.91910134     0.19200
O4834       O  0.81299614  0.94740546  0.81106473    -0.63100
H4835       H  0.75044984  0.44439795  0.82919833     0.17600
C4836       C  0.75995555  0.47419580  0.92586497     0.29900
C4837       C  0.76888957  0.50946108  0.93154815    -0.24000
C4838       C  0.76272564  0.52970198  0.90674871    -0.23300
C4839       C  0.74058982  0.51257373  0.87917143     0.41300
C4840       C  0.72949572  0.47669097  0.87427449    -0.25700
O4841       O  0.77303338  0.45801409  0.94838995    -0.57600
H4842       H  0.78467254  0.52217939  0.95363383     0.17000
O4843       O  0.73199281  0.53123982  0.85549045    -0.59000
H4844       H  0.71398871  0.46460568  0.85198255     0.15400
H4845       H  0.79930464  0.92417633  0.79991336     0.47300
H4846       H  0.80004244  0.46738806  0.94225044     0.42700
H4847       H  0.74977474  0.53573144  0.83640768     0.46100
H4848       H  0.74484208  0.89347025  0.94377530     0.37600
C4849       C  0.90808061  0.81112276  0.92289454    -0.26700
C4850       C  0.89943712  0.79658409  0.89095338     0.02900
C4851       C  0.89469022  0.81674312  0.86498814     0.31000
C4852       C  0.88792974  0.84489518  0.87306126    -0.18500
C4853       C  0.88379041  0.85073742  0.90693128    -0.27900
C4854       C  0.89943308  0.83796483  0.93143826     0.45100
C4855       C  0.87957407  0.75715235  0.88977799     0.06200
O4856       O  0.88870866  0.80468113  0.83308180    -0.56400
H4857       H  0.87769267  0.85603384  0.85350536     0.19200
O4858       O  0.89852269  0.84584748  0.96456118    -0.63100
H4859       H  0.91290685  0.79617824  0.94270305     0.17600
C4860       C  0.88599396  0.73784233  0.86472969     0.29900
C4861       C  0.86441979  0.70036971  0.86531954    -0.24000
C4862       C  0.83788155  0.68225379  0.89145711    -0.23300
C4863       C  0.83210303  0.70162229  0.91652361     0.41300
C4864       C  0.85119905  0.73861170  0.91438922    -0.25700
O4865       O  0.91297596  0.75514299  0.83992285    -0.57600
H4866       H  0.86946901  0.68530819  0.84635175     0.17000
O4867       O  0.80822315  0.68445813  0.94355394    -0.59000
H4868       H  0.84412508  0.75293684  0.93268076     0.15400
H4869       H  0.87826041  0.82379870  0.97571774     0.47300
H4870       H  0.93372608  0.74986878  0.84532368     0.42700
H4871       H  0.82448783  0.68990965  0.96343201     0.46100
H4872       H  0.90512574  0.82607260  0.81885528     0.37600
C4873       C  0.97857204  0.54788063  0.80140811    -0.26700
C4874       C  0.98061157  0.57569746  0.78066163     0.02900
C4875       C  0.99210357  0.57900597  0.74667178     0.31000
C4876       C  0.44842482  0.53826360  0.72865765    -0.18500
C4877       C  0.00432051  0.52948175  0.75574326    -0.27900
C4878       C  0.99155907  0.52534935  0.78934793     0.45100
C4879       C  0.97645953  0.60480189  0.79460074     0.06200
O4880       O  0.42937530  0.58324796  0.72983447    -0.56400
H4881       H  0.44723906  0.53795738  0.70165318     0.19200
O4882       O  0.97668580  0.98926095  0.81559624    -0.63100
H4883       H  0.96939523  0.54506279  0.82735090     0.17600
C4884       C  0.94330805  0.60646135  0.78868817     0.29900
C4885       C  0.94549166  0.63982615  0.78354312    -0.24000
C4886       C  0.98029984  0.67133829  0.78607956    -0.23300
C4887       C  0.01114770  0.66917443  0.79915700     0.41300
C4888       C  0.00967404  0.63587679  0.80197889    -0.25700
O4889       O  0.91057134  0.57610523  0.78185175    -0.57600
H4890       H  0.92089943  0.64095313  0.77440087     0.17000
O4891       O  0.53997138  0.67650331  0.77778085    -0.59000
H4892       H  0.51061024  0.60975623  0.79387785     0.15400
H4893       H  0.00446068  0.00408283  0.81485718     0.47300
H4894       H  0.89769127  0.56681349  0.80401762     0.42700
H4895       H  0.54536482  0.66654951  0.75746049     0.46100
H4896       H  0.45392632  0.60509591  0.72528147     0.37600
C4897       C  0.56094163  0.88772058  0.69170319    -0.26700
C4898       C  0.53665568  0.87391521  0.66434080     0.02900
C4899       C  0.02816635  0.90006912  0.64789587     0.31000
C4900       C  0.03078726  0.93115062  0.66147319    -0.18500
C4901       C  0.52835907  0.92021270  0.70599881    -0.27900
C4902       C  0.55476337  0.90903138  0.71421404     0.45100
C4903       C  0.51705724  0.83479916  0.66301164     0.06200
O4904       O  0.00961921  0.88767942  0.61849515    -0.56400
H4905       H  0.01762517  0.94479992  0.64842314     0.19200
O4906       O  0.56958113  0.91380161  0.74577523    -0.63100
H4907       H  0.57710676  0.87485065  0.70010555     0.17600
C4908       C  0.52527593  0.81726215  0.63778692     0.29900
C4909       C  0.52373095  0.78445394  0.64590266    -0.24000
C4910       C  0.51881168  0.77198113  0.67977946    -0.23300
C4911       C  0.50744764  0.78877347  0.70379239     0.41300
C4912       C  0.50104933  0.81664888  0.69366703    -0.25700
O4913       O  0.53898170  0.83367362  0.60686985    -0.57600
H4914       H  0.53339775  0.77267985  0.62724153     0.17000
O4915       O  0.00424550  0.78293085  0.74024972    -0.59000
H4916       H  0.99759288  0.83563722  0.71671822     0.15400
H4917       H  0.59732270  0.92563064  0.74228291     0.47300
H4918       H  0.56628944  0.84974504  0.60989566     0.42700
H4919       H  0.02981043  0.79897275  0.74861486     0.46100
H4920       H  0.02817653  0.90211458  0.60043012     0.37600
C4921       C  0.88381595  0.76507772  0.76025604    -0.26700
C4922       C  0.88413589  0.79780701  0.75710301     0.02900
C4923       C  0.85372538  0.80174238  0.76955093     0.31000
C4924       C  0.82198147  0.77186490  0.78291927    -0.18500
C4925       C  0.81871573  0.73797567  0.77958382    -0.27900
C4926       C  0.85100254  0.73483838  0.77108684     0.45100
C4927       C  0.91577021  0.82786280  0.74022858     0.06200
O4928       O  0.85420947  0.83421076  0.76721357    -0.56400
H4929       H  0.79820973  0.77461736  0.79170957     0.19200
O4930       O  0.84887339  0.70190160  0.76803806    -0.63100
H4931       H  0.90780912  0.76263986  0.75145085     0.17600
C4932       C  0.94962164  0.84708583  0.75702832     0.29900
C4933       C  0.97357238  0.88221144  0.74665422    -0.24000
C4934       C  0.96497523  0.89724518  0.71846497    -0.23300
C4935       C  0.93503760  0.87529360  0.69790798     0.41300
C4936       C  0.90978196  0.84080369  0.70947180    -0.25700
O4937       O  0.95778601  0.83311689  0.78523382    -0.57600
H4938       H  0.99724115  0.89850839  0.76215817     0.17000
O4939       O  0.92823581  0.88795670  0.66824912    -0.59000
H4940       H  0.88423683  0.82509415  0.69576063     0.15400
H4941       H  0.85558353  0.69608913  0.79036292     0.47300
H4942       H  0.96955062  0.81901057  0.77679210     0.42700
H4943       H  0.95132757  0.89589045  0.65420703     0.46100
H4944       H  0.86302260  0.84520215  0.78927005     0.37600
C4945       C  0.67064822  0.64186531  0.67390076    -0.26700
C4946       C  0.64357655  0.65250538  0.68103954     0.02900
C4947       C  0.65416727  0.68898101  0.68218401     0.31000
C4948       C  0.69210163  0.71423943  0.67837658    -0.18500
C4949       C  0.71969573  0.70334926  0.67394977    -0.27900
C4950       C  0.70846787  0.66725404  0.66895606     0.45100
C4951       C  0.60467483  0.62474890  0.68803580     0.06200
O4952       O  0.62851254  0.70006791  0.69047769    -0.56400
H4953       H  0.70034050  0.74205612  0.68273026     0.19200
O4954       O  0.73492403  0.65703743  0.66097862    -0.63100
H4955       H  0.66269421  0.61367004  0.67350026     0.17600
C4956       C  0.58683097  0.59785231  0.66503420     0.29900
C4957       C  0.55355257  0.56732370  0.67419938    -0.24000
C4958       C  0.54083305  0.56141263  0.70773833    -0.23300
C4959       C  0.55639637  0.58957552  0.73002979     0.41300
C4960       C  0.58785086  0.62174602  0.71964146    -0.25700
O4961       O  0.60405626  0.59977007  0.63480793    -0.57600
H4962       H  0.54164266  0.54552435  0.65692719     0.17000
O4963       O  0.54364566  0.58462165  0.76262777    -0.59000
H4964       H  0.60150403  0.64272522  0.73716385     0.15400
H4965       H  0.72200612  0.63277619  0.65153383     0.47300
H4966       H  0.61459443  0.58314637  0.63768442     0.42700
H4967       H  0.55793375  0.57458992  0.77464199     0.46100
H4968       H  0.60778726  0.68896428  0.67432481     0.37600
C4969       C  0.61651043  0.99708921  0.78545708    -0.26700
C4970       C  0.64169788  0.00188216  0.75899628     0.02900
C4971       C  0.63080648  0.00200330  0.72547566     0.31000
C4972       C  0.59419404  0.99521405  0.71885552    -0.18500
C4973       C  0.56808785  0.98686763  0.74534037    -0.27900
C4974       C  0.57969997  0.98933104  0.77880084     0.45100
C4975       C  0.67689223  0.00134833  0.76673805     0.06200
O4976       O  0.65410593  0.00414416  0.69928606    -0.56400
H4977       H  0.58506420  0.99276459  0.69309634     0.19200
O4978       O  0.56636713  0.52122386  0.78050816    -0.63100
H4979       H  0.62898692  0.52068364  0.79203347     0.17600
C4980       C  0.71241400  0.02840157  0.75456523     0.29900
C4981       C  0.74424041  0.02563623  0.76243670    -0.24000
C4982       C  0.74117464  0.99383410  0.77692788    -0.23300
C4983       C  0.70619233  0.96708323  0.78950394     0.41300
C4984       C  0.67439083  0.97163765  0.78533930    -0.25700
O4985       O  0.72592852  0.56765359  0.73231270    -0.57600
H4986       H  0.77014318  0.54728752  0.75964511     0.17000
O4987       O  0.70259734  0.93529994  0.80260370    -0.59000
H4988       H  0.64712920  0.95044054  0.79416765     0.15400
H4989       H  0.55166454  0.49525607  0.78649767     0.47300
H4990       H  0.71072062  0.57874177  0.74008267     0.42700
H4991       H  0.68374630  0.92719186  0.82136775     0.46100
H4992       H  0.66084956  0.02715017  0.68709028     0.37600
C4993       C  0.86002646  0.92467151  0.71678946    -0.26700
C4994       C  0.86061069  0.93333310  0.68231145     0.02900
C4995       C  0.89400483  0.94576783  0.66332591     0.31000
C4996       C  0.92688613  0.95172355  0.67898442    -0.18500
C4997       C  0.92645179  0.94304530  0.71322087    -0.27900
C4998       C  0.89285918  0.92917944  0.73231569     0.45100
C4999       C  0.82733194  0.93296987  0.66753865     0.06200
O5000       O  0.89479531  0.95254152  0.62951329    -0.56400
H5001       H  0.95296108  0.96288767  0.66427723     0.19200
O5002       O  0.89223087  0.92080055  0.76594437    -0.63100
H5003       H  0.83449768  0.91567080  0.73189553     0.17600
C5004       C  0.79194367  0.90238251  0.67113032     0.29900
C5005       C  0.75965765  0.90563648  0.66661891    -0.24000
C5006       C  0.76271652  0.93974464  0.66111289    -0.23300
C5007       C  0.79728395  0.96785497  0.64929704     0.41300
C5008       C  0.82999554  0.96505794  0.65427623    -0.25700
O5009       O  0.78874957  0.87012244  0.68195869    -0.57600
H5010       H  0.73314284  0.88319252  0.67513382     0.17000
O5011       O  0.79979531  0.99977796  0.63832698    -0.59000
H5012       H  0.85727655  0.98860460  0.65013040     0.15400
H5013       H  0.88785528  0.93870685  0.77785122     0.47300
H5014       H  0.77896853  0.86630236  0.70548721     0.42700
H5015       H  0.81481292  0.00655261  0.61700568     0.46100
H5016       H  0.89716448  0.93284227  0.61892183     0.37600
C5017       C  0.72492255  0.70016418  0.51642235    -0.26700
C5018       C  0.73731726  0.69413156  0.54770664     0.02900
C5019       C  0.70891766  0.67975857  0.57291266     0.31000
C5020       C  0.68332424  0.69288009  0.57455828    -0.18500
C5021       C  0.68132566  0.71295534  0.54696268    -0.27900
C5022       C  0.69817047  0.71210050  0.51621680     0.45100
C5023       C  0.77648159  0.72066488  0.55866748     0.06200
O5024       O  0.70840449  0.65612649  0.59705415    -0.52500
H5025       H  0.66739210  0.68939084  0.59759315     0.19200
O5026       O  0.69216646  0.72665812  0.48727652    -0.63100
H5027       H  0.74019280  0.70196921  0.49340144     0.17600
C5028       C  0.80028684  0.75214014  0.53899498     0.29900
C5029       C  0.83325522  0.77888274  0.55213208    -0.24000
C5030       C  0.84462823  0.77535915  0.58440658    -0.23300
C5031       C  0.82117877  0.74547351  0.60491420     0.41300
C5032       C  0.78818101  0.71807226  0.59170581    -0.25700
O5033       O  0.79245349  0.75762929  0.50665733    -0.57600
H5034       H  0.85142352  0.80190491  0.53604825     0.17000
O5035       O  0.83151684  0.74110610  0.63678722    -0.59000
H5036       H  0.77208215  0.69476368  0.60776409     0.15400
H5037       H  0.67095197  0.70633404  0.47641243     0.47300
H5038       H  0.88254613  0.87516218  0.15891442     0.42700
H5039       H  0.83824371  0.76364787  0.64841487     0.46100
H5040       H  0.68527567  0.63322585  0.59315687     0.37600
C5041       C  0.52310813  0.82671392  0.47433047    -0.26700
C5042       C  0.53294928  0.80005722  0.48187768     0.02900
C5043       C  0.50533379  0.76658927  0.49484053     0.31000
C5044       C  0.95814682  0.75468432  0.51105665    -0.18500
C5045       C  0.95009820  0.78282152  0.50440818    -0.27900
C5046       C  0.97872456  0.81604819  0.49265576     0.45100
C5047       C  0.57222041  0.81046290  0.48886605     0.06200
O5048       O  0.51239382  0.73824635  0.49866654    -0.56400
H5049       H  0.93623967  0.72859961  0.52000694     0.19200
O5050       O  0.97008166  0.84132060  0.47988420    -0.63100
H5051       H  0.54426849  0.85218287  0.46392531     0.17600
C5052       C  0.58900934  0.79086063  0.47630263     0.29900
C5053       C  0.61737043  0.78904316  0.49456663    -0.24000
C5054       C  0.62712076  0.80477439  0.52601777    -0.23300
C5055       C  0.61364194  0.82770272  0.53641771     0.41300
C5056       C  0.58708122  0.83139402  0.51719312    -0.25700
O5057       O  0.57421953  0.76961644  0.44916987    -0.57600
H5058       H  0.62828426  0.77168191  0.48632441     0.17000
O5059       O  0.62174473  0.84205241  0.56754210    -0.59000
H5060       H  0.57368277  0.84588927  0.52753325     0.15400
H5061       H  0.98688323  0.85292495  0.46007621     0.47300
H5062       H  0.59550318  0.77640798  0.43301990     0.42700
H5063       H  0.60314961  0.82326892  0.58322474     0.46100
H5064       H  0.50469305  0.72537760  0.47733157     0.37600
C5065       C  0.79525419  0.82387375  0.57116168    -0.26700
C5066       C  0.80872500  0.84645410  0.54208878     0.02900
C5067       C  0.78759943  0.83487725  0.51240365     0.31000
C5068       C  0.75085128  0.80677343  0.51435216    -0.18500
C5069       C  0.73482510  0.79039231  0.54543261    -0.27900
C5070       C  0.75770573  0.79675600  0.57336438     0.45100
C5071       C  0.83597060  0.88529141  0.54553719     0.06200
O5072       O  0.80039322  0.85321804  0.48219137    -0.56400
H5073       H  0.73331630  0.80122325  0.49247226     0.19200
O5074       O  0.74237503  0.77967245  0.60367863    -0.63100
H5075       H  0.81204310  0.83024054  0.59356120     0.17600
C5076       C  0.83222895  0.90374642  0.57320581     0.29900
C5077       C  0.84883959  0.94092199  0.57175391    -0.24000
C5078       C  0.86761716  0.96060484  0.54278922    -0.23300
C5079       C  0.87058336  0.94262907  0.51488347     0.41300
C5080       C  0.85843208  0.90579147  0.51775220    -0.25700
O5081       O  0.80943700  0.88595142  0.60054755    -0.57600
H5082       H  0.84352246  0.95430611  0.59208216     0.17000
O5083       O  0.88580394  0.96091944  0.48499443    -0.59000
H5084       H  0.86336089  0.89289428  0.49673114     0.15400
H5085       H  0.73778251  0.79691580  0.61652895     0.47300
H5086       H  0.78461480  0.88414672  0.59547622     0.42700
H5087       H  0.90660629  0.47226203  0.47829203     0.46100
H5088       H  0.79281801  0.87213565  0.48201051     0.37600
C5089       C  0.47484523  0.63875114  0.63518534    -0.26700
C5090       C  0.48633251  0.66056130  0.60580633     0.02900
C5091       C  0.48018162  0.64435249  0.57418985     0.31000
C5092       C  0.46546913  0.60756525  0.57276957    -0.18500
C5093       C  0.45537889  0.58603869  0.60217418    -0.27900
C5094       C  0.45964384  0.60179958  0.63348165     0.45100
C5095       C  0.51448754  0.69855995  0.60833456     0.06200
O5096       O  0.49289774  0.66426924  0.54465969    -0.56400
H5097       H  0.46340634  0.59606747  0.54842172     0.19200
O5098       O  0.95171061  0.57061058  0.67186593    -0.63100
H5099       H  0.48070362  0.65066003  0.65960771     0.17600
C5100       C  0.51742107  0.72338959  0.58296056     0.29900
C5101       C  0.55285949  0.74568788  0.56829580    -0.24000
C5102       C  0.58466515  0.74610171  0.58222085    -0.23300
C5103       C  0.58189696  0.73087510  0.61438901     0.41300
C5104       C  0.54660838  0.70562256  0.62677469    -0.25700
O5105       O  0.48567953  0.72095428  0.56850497    -0.57600
H5106       H  0.55493965  0.75960124  0.54487007     0.17000
O5107       O  0.61361914  0.73529778  0.63069966    -0.59000
H5108       H  0.54529718  0.68842252  0.64788316     0.15400
H5109       H  0.92532953  0.56433660  0.67767536     0.47300
H5110       H  0.48178597  0.73985133  0.57896292     0.42700
H5111       H  0.62988561  0.76151629  0.63262624     0.46100
H5112       H  0.46990910  0.66086275  0.53291391     0.37600
C5113       C  0.59479599  0.60146582  0.51282918    -0.26700
C5114       C  0.57265810  0.59365891  0.54262407     0.02900
C5115       C  0.57740416  0.57217536  0.56749174     0.31000
C5116       C  0.61060547  0.56964604  0.56778138    -0.18500
C5117       C  0.63421997  0.57935586  0.53915593    -0.27900
C5118       C  0.62445360  0.59340117  0.51060137     0.45100
C5119       C  0.55583130  0.61712969  0.55183717     0.06200
O5120       O  0.55043111  0.55463084  0.59211728    -0.56400
H5121       H  0.61688248  0.55846122  0.58991053     0.19200
O5122       O  0.64527385  0.60175337  0.48119788    -0.63100
H5123       H  0.59131240  0.61620613  0.49182798     0.17600
C5124       C  0.56366355  0.63107230  0.58422969     0.29900
C5125       C  0.59083124  0.66693828  0.58750452    -0.24000
C5126       C  0.60117211  0.69023636  0.55923717    -0.23300
C5127       C  0.58069889  0.67792925  0.52981644     0.41300
C5128       C  0.55644452  0.64117189  0.52674767    -0.25700
O5129       O  0.54629206  0.60960903  0.61203773    -0.57600
H5130       H  0.60250458  0.67629634  0.61183579     0.17000
O5131       O  0.58573549  0.70157311  0.50379483    -0.59000
H5132       H  0.54384129  0.63115834  0.50307036     0.15400
H5133       H  0.62790310  0.58558566  0.46434001     0.47300
H5134       H  0.53686698  0.62284157  0.62580069     0.42700
H5135       H  0.61128921  0.70889309  0.49445304     0.46100
H5136       H  0.54069199  0.52876053  0.58828856     0.37600
C5137       C  0.65705631  0.91975275  0.60158515    -0.26700
C5138       C  0.69413823  0.92937131  0.59232709     0.02900
C5139       C  0.72039332  0.96584468  0.58777173     0.31000
C5140       C  0.70917796  0.99204692  0.59226598    -0.18500
C5141       C  0.67161015  0.98268067  0.60046233    -0.27900
C5142       C  0.64557648  0.94546168  0.60562410     0.45100
C5143       C  0.70351949  0.90068551  0.58453319     0.06200
O5144       O  0.75699780  0.97610381  0.57856545    -0.56400
H5145       H  0.72975638  0.01939833  0.58726785     0.19200
O5146       O  0.60783530  0.93313201  0.61129881    -0.63100
H5147       H  0.63615685  0.89188985  0.60485333     0.17600
C5148       C  0.69421110  0.87153716  0.60733361     0.29900
C5149       C  0.69626884  0.84145968  0.59697442    -0.24000
C5150       C  0.70256492  0.83786617  0.56299016    -0.23300
C5151       C  0.71453888  0.86764041  0.54087048     0.41300
C5152       C  0.71551595  0.89910213  0.55174779    -0.25700
O5153       O  0.67916710  0.87044366  0.63857746    -0.57600
H5154       H  0.68622881  0.81837035  0.61416215     0.17000
O5155       O  0.72091488  0.86467240  0.50770920    -0.59000
H5156       H  0.72168440  0.92065504  0.53347610     0.15400
H5157       H  0.60385471  0.92709111  0.63570918     0.47300
H5158       H  0.65215255  0.85219447  0.63776208     0.42700
H5159       H  0.74803666  0.88173519  0.50404241     0.46100
H5160       H  0.75863484  0.98040286  0.55387874     0.37600
loop_ 
_geom_bond_atom_site_label_1 
_geom_bond_atom_site_label_2 
_geom_bond_distance 
_geom_bond_site_symmetry_2 
_ccdc_geom_bond_type 
N1            N8   1.437       .  S
N1         C1295   1.402       .  A
N1         C1292   1.366       .  A
C2         N1291   1.357       .  A
C2            C3   1.395       .  A
C2          C626   1.493       .  S
C3            C4   1.366       .  A
C3            H6   1.082       .  S
C4            C5   1.375       .  A
C4            H7   1.083       .  S
C5         N1291   1.405       .  A
C5          C184   1.537       .  S
N8           C12   1.406       .  A
N8            C9   1.363       .  A
C9           C10   1.382       .  A
C9          C602   1.476       .  S
C10          C11   1.348       .  A
C10          H13   1.080   1_554  S
C11          C12   1.383       .  A
C11          H14   1.083       .  S
C12          C70   1.538       .  S
N15          N22   1.446       .  S
N15          C19   1.405       .  A
N15          C16   1.355       .  A
C16          C17   1.380       .  A
C16        C3158   1.466       .  S
C17          C18   1.367       .  A
C17        H2600   1.082       .  S
C18          C19   1.381       .  A
C18          H21   1.083   1_545  S
C19         C186   1.539   1_545  S
H20        C2597   1.082       .  S
N22          C26   1.416       .  A
N22          C23   1.359       .  A
C23          C24   1.369       .  A
C23        C1853   1.462   1_545  S
C24          C25   1.356       .  A
C24          H27   1.082       .  S
C25          C26   1.390       .  A
C25          H28   1.083       .  S
C26          C64   1.554       .  S
N29          N36   1.441       .  S
N29          C33   1.392       .  A
N29          C30   1.355       .  A
C30          C31   1.377       .  A
C30         C530   1.467       .  S
C31          C32   1.369       .  A
C31          H34   1.080   1_554  S
C32          C33   1.385       .  A
C32          H35   1.082       .  S
C33          C69   1.543       .  S
N36          C40   1.382       .  A
N36          C37   1.353       .  A
C37          C38   1.382       .  A
C37         C515   1.474       .  S
C38          C39   1.375       .  A
C38          H41   1.082       .  S
C39          C40   1.387       .  A
C39          H42   1.083       .  S
C40         C169   1.538       .  S
C43          C44   1.382       .  A
C43          C48   1.402       .  A
C43         C635   1.476       .  S
C44          C45   1.383       .  A
C44         C539   1.448       .  S
C45          C46   1.395       .  A
C45         C587   1.466       .  S
C46          C47   1.402       .  A
C46         C611   1.475       .  S
C47          C48   1.412       .  A
C47         C506   1.466       .  S
C48         C554   1.459       .  S
O49          C65   1.301       .  A
O49         Zn55   2.227       .  S
C50          C83   1.561       .  S
C50          O66   1.296       .  A
C50          O63   1.296       .  A
O51          C64   1.293       .  A
O51         Cd58   2.149       .  S
O52          C70   1.286       .  A
O52         Cd61   2.199       .  S
O53          C67   1.283       .  A
O53         Cd57   2.130       .  S
O54          C65   1.285       .  A
O54         Cd57   2.110       .  S
Zn55         O66   2.148       .  S
Zn55         O68   2.186       .  S
Zn55         O60   2.050       .  S
O56          C67   1.290       .  A
O56         Cd61   2.149       .  S
Cd57         O59   2.148       .  S
Cd57         O60   2.073       .  S
Cd58         O62   2.204       .  S
Cd58         O71   2.107       .  S
Cd58         O60   2.007       .  S
O59          C69   1.277       .  A
O60         Cd61   2.112       .  S
Cd61         O63   2.234       .  S
O62          C69   1.295       .  A
C64          O68   1.289       .  A
C65         C111   1.537       .  S
C67          C97   1.507       .  S
C70          O71   1.286       .  A
N72          N79   1.445       .  S
N72          C76   1.396       .  A
N72          C73   1.355       .  A
C73          C74   1.368       .  A
C73         C491   1.460       .  S
C74          C75   1.369       .  A
C74          H77   1.075       .  S
C75          C76   1.387       .  A
C75          H78   1.083       .  S
C76         C207   1.559       .  S
N79          C80   1.353       .  A
N79        C1373   1.392       .  A
C80        C1371   1.379       .  A
C80         C467   1.466       .  S
C81          C82   1.371       .  A
C81        C1370   1.382   1_545  A
C81          H84   1.083       .  S
C82          C83   1.384       .  A
C82          H85   1.081       .  S
C83        N1369   1.396   1_545  A
N86          N93   1.435       .  S
N86          C90   1.386       .  A
N86          C87   1.348       .  A
C87          C88   1.384       .  A
C87         C434   1.487       .  S
C88          C89   1.371       .  A
C88          H91   1.081       .  S
C89          C90   1.382       .  A
C89          H92   1.081       .  S
C90         C209   1.536       .  S
N93          C97   1.384       .  A
N93          C94   1.345       .  A
C94          C95   1.368       .  A
C94         C410   1.450       .  S
C95          C96   1.364       .  A
C95          H98   1.079       .  S
C96          C97   1.379       .  A
C96          H99   1.082       .  S
N100       N2687   1.441   1_455  S
N100        C104   1.386       .  A
N100        C101   1.352       .  A
C101        C102   1.376       .  A
C101        C395   1.477       .  S
C102        C103   1.373       .  A
C102        H105   1.080       .  S
C103        C104   1.390       .  A
C103        H106   1.083       .  S
C104        C192   1.543       .  S
N107       N2680   1.453       .  S
N107        C111   1.391       .  A
N107        C108   1.360       .  A
C108        C109   1.387       .  A
C108        C371   1.491       .  S
C109        C110   1.359       .  A
C109        H112   1.081       .  S
C110        C111   1.380       .  A
C110        H113   1.078       .  S
C114        C119   1.402       .  A
C114       C2695   1.399   1_455  A
C114        C386   1.483       .  S
C115        C116   1.391       .  A
C115       C2694   1.392       .  A
C115        C419   1.450       .  S
C116        C117   1.386       .  A
C116        C482   1.461       .  S
C117       C2698   1.394       .  A
C117       C1652   1.460       .  S
C118        C119   1.398   1_655  A
C118       C2697   1.398       .  A
C118       C1733   1.479   1_655  S
C119        C458   1.456       .  S
N120        N127   1.432       .  S
N120        C124   1.380       .  A
N120        C121   1.360       .  A
C121        C122   1.383       .  A
C121        C338   1.481       .  S
C122        C123   1.367       .  A
C122        H125   1.083       .  S
C123        C124   1.383       .  A
C123        H126   1.083       .  S
C124        C211   1.527       .  S
N127        C131   1.389       .  A
N127        C128   1.367       .  A
C128        C129   1.382       .  A
C128        C314   1.481       .  S
C129        C130   1.360       .  A
C129        H132   1.082       .  S
C130        C131   1.376       .  A
C130        H133   1.082       .  S
C131        C189   1.510       .  S
N134        N141   1.433       .  S
N134        C138   1.393       .  A
N134        C135   1.355       .  A
C135        C136   1.371       .  A
C135        C299   1.453       .  S
C136        C137   1.351       .  A
C136        H139   1.082       .  S
C137        C138   1.387       .  A
C137        H140   1.082       .  S
C138        C206   1.532       .  S
N141        C145   1.404       .  A
N141        C142   1.361       .  A
C142        C143   1.374       .  A
C142        C266   1.484       .  S
C143        C144   1.373       .  A
C143       H2726   1.082   1_455  S
C144        C145   1.391       .  A
C144        H147   1.083       .  S
C145        C183   1.561       .  S
H146       C2723   1.083       .  S
N148        N155   1.438       .  S
N148        C152   1.397       .  A
N148        C149   1.357       .  A
C149        C150   1.375       .  A
C149        C251   1.468       .  S
C150        C151   1.371       .  A
C150        H153   1.080       .  S
C151        C152   1.384       .  A
C151        H154   1.082       .  S
C152        C188   1.558       .  S
N155        C159   1.400       .  A
N155        C156   1.359       .  A
C156        C157   1.367       .  A
C156        C227   1.457       .  S
C157        C158   1.359       .  A
C157        H160   1.081       .  S
C158        C159   1.391       .  A
C158        H161   1.084       .  S
C159        C212   1.535       .  S
C162        C163   1.403       .  A
C162        C167   1.413       .  A
C162        C347   1.476       .  S
C163        C164   1.406       .  A
C163        C275   1.485       .  S
C164        C165   1.401       .  A
C164        C218   1.459       .  S
C165        C166   1.406       .  A
C165        C323   1.486       .  S
C166        C167   1.415       .  A
C166        C290   1.497       .  S
C167        C242   1.469       .  S
O168        C184   1.297       .  A
O168       Zn819   2.176   1_554  S
C169        O185   1.284       .  A
C169        O182   1.298       .  A
O170        C183   1.282       .  A
O170       Cd177   2.118       .  S
O171        C189   1.287       .  A
O171       Cd825   2.186       .  S
O172       C2766   1.294   1_545  A
O172      Cd1466   2.205   1_654  S
O173        C184   1.288       .  A
O173       Cd176   2.159   1_554  S
Zn174       O187   2.248       .  S
Zn174       O813   2.151       .  S
Zn174      O3410   2.162   1_455  S
Zn174       O179   2.028       .  S
O175       C1476   1.295       .  A
O175       Cd180   2.206   1_554  S
Cd176      O1462   2.202   1_456  S
Cd176      O2113   2.224       .  S
Cd176       O824   2.092       .  S
Cd177       O181   2.132       .  S
Cd177      O2770   2.088   1_455  S
Cd177       O179   2.037       .  S
O178        C188   1.292       .  A
O178      Cd2111   2.244       .  S
O179       Cd821   2.084       .  S
O179      Cd3405   2.089   1_455  S
Cd180       O182   2.235   1_556  S
Cd180       O816   2.234       .  S
Cd180      O3404   2.104       .  S
O181       C1478   1.284       .  A
C183        O187   1.297       .  A
O185      Zn3399   2.078   1_554  S
C186       O2752   1.289   1_565  A
C186       O1465   1.286       .  A
C188       O1471   1.283       .  A
C189        O190   1.280       .  A
O190      Cd2757   2.108       .  S
O191        C207   1.292       .  A
O191       Zn197   2.128       .  S
C192        O208   1.299       .  A
C192        O205   1.288       .  A
O193        C206   1.277       .  A
O193       Cd200   2.053       .  S
O194        C212   1.282       .  A
O194       Cd203   2.226       .  S
O195        C209   1.296       .  A
O195       Cd199   2.172       .  S
O196        C207   1.298       .  A
O196       Cd199   2.249       .  S
Zn197       O208   2.215       .  S
Zn197       O210   2.195       .  S
Zn197       O202   2.057       .  S
O198        C209   1.294       .  A
O198       Cd203   2.199       .  S
Cd199       O201   2.208       .  S
Cd199       O202   2.099       .  S
Cd200       O204   2.074       .  S
Cd200       O213   2.098       .  S
Cd200       O202   1.990       .  S
O201        C211   1.289       .  A
O202       Cd203   2.080       .  S
Cd203       O205   2.132       .  S
O204        C211   1.276       .  A
C206        O210   1.289       .  A
C212        O213   1.278       .  A
C214        C215   1.406       .  A
C214        C219   1.395       .  A
C214        H224   1.079       .  S
C215        C216   1.421       .  A
C215        C220   1.471       .  S
C216        C217   1.377       .  A
C216        O221   1.372       .  S
C217        C218   1.386       .  A
C217        H222   1.082       .  S
C218        C219   1.401       .  A
C219        O223   1.372       .  S
C220        C225   1.399       .  A
C220        C229   1.406       .  A
O221        H237   0.987       .  S
O223        H234   0.992       .  S
C225       C2806   1.394       .  A
C225        O230   1.366       .  S
C226        C227   1.393       .  A
C226       C2805   1.394   1_455  A
C226        H231   1.081       .  S
C227        C228   1.404   1_455  A
C228       C2809   1.391       .  A
C228        O232   1.371   1_655  S
C229       C2808   1.391       .  A
C229        H233   1.083       .  S
O230        H235   0.991   1_545  S
O232        H236   0.990       .  S
C238        C239   1.410       .  A
C238        C243   1.403       .  A
C238        H248   1.084       .  S
C239        C240   1.402       .  A
C239        C244   1.465       .  S
C240        C241   1.384       .  A
C240        O245   1.372       .  S
C241        C242   1.402       .  A
C241        H246   1.084       .  S
C242        C243   1.402       .  A
C243        O247   1.371       .  S
C244        C249   1.407       .  A
C244        C253   1.404       .  A
O245        H261   0.988       .  S
O247        H258   0.991       .  S
C249        C250   1.382       .  A
C249        O254   1.372       .  S
C250        C251   1.400       .  A
C250        H255   1.083       .  S
C251        C252   1.401       .  A
C252        C253   1.398       .  A
C252        O256   1.368       .  S
C253        H257   1.081       .  S
O254        H259   0.992       .  S
O256        H260   0.992       .  S
C262        C263   1.403       .  A
C262       C2847   1.387       .  A
C262        H272   1.082       .  S
C263        C264   1.420       .  A
C263        C268   1.501       .  S
C264        C265   1.413       .  A
C264        O269   1.373       .  S
C265       C2846   1.403       .  A
C265        H270   1.081       .  S
C266        C267   1.399       .  A
C266       C2845   1.404       .  A
C267       C2842   1.381       .  A
C267        O271   1.361       .  S
C268        C273   1.406       .  A
C268        C277   1.408       .  A
O269        H285   0.992       .  S
O271        H282   0.980   1_455  S
C273        C274   1.394       .  A
C273        O278   1.353       .  S
C274        C275   1.394       .  A
C274        H279   1.084       .  S
C275        C276   1.406       .  A
C276        C277   1.403       .  A
C276        O280   1.372       .  S
C277        H281   1.081       .  S
O278        H283   0.988       .  S
O280        H284   0.992       .  S
C286        C287   1.401       .  A
C286        C291   1.395       .  A
C286        H296   1.083       .  S
C287        C288   1.412       .  A
C287       C1582   1.482   1_545  S
C288        C289   1.396       .  A
C288       O1583   1.369       .  S
C289        C290   1.407       .  A
C289        H294   1.085       .  S
C290        C291   1.406       .  A
C291        O295   1.358       .  S
C292        C297   1.411       .  A
C292        C301   1.410       .  A
C292       C1577   1.477       .  S
O293       C1578   1.365       .  S
O293        H309   0.991       .  S
O295        H306   0.992       .  S
C297        C298   1.388       .  A
C297        O302   1.372       .  S
C298        C299   1.399       .  A
C298        H303   1.084       .  S
C299        C300   1.404       .  A
C300        C301   1.383       .  A
C300        O304   1.373       .  S
C301        H305   1.083       .  S
O302        H307   0.992       .  S
O304        H308   0.991       .  S
C310        C311   1.411       .  A
C310       C1605   1.401       .  A
C310        H320   1.080       .  S
C311       C1602   1.395       .  A
C311        C316   1.496       .  S
C312        C313   1.394       .  A
C312       C1601   1.400       .  A
C312        O317   1.369       .  S
C313        C314   1.402       .  A
C313        H318   1.074       .  S
C314        C315   1.409       .  A
C315       C1600   1.399       .  A
C315        O319   1.372       .  S
C316        C321   1.427       .  A
C316        C325   1.404       .  A
O317        H333   0.991       .  S
O319        H330   0.991       .  S
C321        C322   1.390   1_565  A
C321        O326   1.371       .  S
C322        C323   1.392       .  A
C322        H327   1.083       .  S
C323        C324   1.403       .  A
C324        C325   1.397   1_545  A
C324        O328   1.367       .  S
C325        H329   1.083       .  S
O326        H331   0.992       .  S
O328        H332   0.991       .  S
C334        C335   1.402       .  A
C334        C339   1.398       .  A
C334        H344   1.073       .  S
C335        C336   1.411       .  A
C335        C340   1.483       .  S
C336        C337   1.392       .  A
C336        O341   1.370       .  S
C337        C338   1.404       .  A
C337        H342   1.084       .  S
C338        C339   1.406       .  A
C339        O343   1.366       .  S
C340        C345   1.408       .  A
C340        C349   1.402       .  A
O341        H357   0.986       .  S
O343        H354   0.992       .  S
C345        C346   1.399       .  A
C345        O350   1.371       .  S
C346        C347   1.404       .  A
C346        H351   1.083       .  S
C347        C348   1.398       .  A
C348        C349   1.392       .  A
C348        O352   1.371       .  S
C349        H353   1.076       .  S
O350        H355   0.992       .  S
O352        H356   0.991       .  S
C358        C359   1.398       .  A
C358        C363   1.393       .  A
C358        H368   1.082       .  S
C359        C360   1.408       .  A
C359        C364   1.467       .  S
C360       C2941   1.396       .  A
C360       O2945   1.374       .  S
C361       C2940   1.391       .  A
C361       C2942   1.392       .  A
C361        H366   1.083       .  S
C362        C363   1.407       .  A
C362       C2941   1.404       .  A
C362       C1407   1.484   1_545  S
C363       O1657   1.370   1_545  S
C364        C369   1.400       .  A
C364        C373   1.399       .  A
O365       C2940   1.370       .  S
O365        H381   0.992       .  S
O367       C1653   1.371       .  S
O367        H378   0.991       .  S
C369        C370   1.397       .  A
C369        O374   1.370       .  S
C370        C371   1.417       .  A
C370        H375   1.083       .  S
C371        C372   1.405       .  A
C372        C373   1.391       .  A
C372       O2956   1.363       .  S
C373       H2957   1.085       .  S
O374        H379   0.990       .  S
O376       C2952   1.367   1_455  S
O376        H380   0.992       .  S
H377       C2953   1.084       .  S
C382        C383   1.406       .  A
C382        C387   1.396       .  A
C382        H392   1.084       .  S
C383       C2964   1.391       .  A
C383        C388   1.476       .  S
C384        C385   1.394       .  A
C384       C2963   1.410       .  A
C384        O389   1.371       .  S
C385       C2966   1.402       .  A
C385        H390   1.084       .  S
C386        C387   1.408       .  A
C386       C2965   1.412       .  A
C387        O391   1.372       .  S
C388        C393   1.408       .  A
C388        C397   1.396       .  A
O389        H405   0.992       .  S
O391        H402   0.992       .  S
C393        C394   1.410       .  A
C393        O398   1.370       .  S
C394        C395   1.410       .  A
C394        H399   1.080       .  S
C395        C396   1.410       .  A
C396        C397   1.366       .  A
C396       O2980   1.371       .  S
C397       H2981   1.085       .  S
O398        H403   0.992       .  S
O400       C2976   1.370       .  S
O400        H404   0.991       .  S
H401       C2977   1.084       .  S
C406        C407   1.387       .  A
C406        C411   1.378       .  A
C406        H416   1.085       .  S
C407        C408   1.408       .  A
C407        C412   1.435       .  S
C408        C409   1.390       .  A
C408        O413   1.374       .  S
C409        C410   1.395       .  A
C409        H414   1.081       .  S
C410        C411   1.413       .  A
C411        O415   1.370       .  S
C412        C417   1.395       .  A
C412        C421   1.396       .  A
O413        H429   0.990       .  S
O415        H426   0.992       .  S
C417        C418   1.379       .  A
C417        O422   1.366       .  S
C418        C419   1.396       .  A
C418        H423   1.085       .  S
C419        C420   1.403       .  A
C420        C421   1.387       .  A
C420        O424   1.372       .  S
C421        H425   1.084       .  S
O422        H427   0.991       .  S
O424        H428   0.991       .  S
C430        C431   1.391       .  A
C430        C435   1.381       .  A
C430        H440   1.085       .  S
C431        C432   1.393       .  A
C431        C436   1.460       .  S
C432        C433   1.397       .  A
C432        O437   1.361       .  S
C433        C434   1.409       .  A
C433        H438   1.082       .  S
C434        C435   1.421       .  A
C435        O439   1.367       .  S
C436        C441   1.402       .  A
C436        C445   1.406       .  A
O437        H453   0.985       .  S
O439        H450   0.989       .  S
C441        C442   1.388       .  A
C441        O446   1.373       .  S
C442        C443   1.404       .  A
C442        H447   1.085       .  S
C443        C444   1.399       .  A
C443       C1408   1.461       .  S
C444        C445   1.392       .  A
C444        O448   1.370       .  S
C445        H449   1.084       .  S
O446        H451   0.992       .  S
O448        H452   0.991       .  S
C454        C455   1.400       .  A
C454        C459   1.387       .  A
C454       H1754   1.084       .  S
C455        C456   1.418       .  A
C455        C460   1.476       .  S
C456        C457   1.395       .  A
C456        O461   1.369       .  S
C457        C458   1.392       .  A
C457        H462   1.083       .  S
C458        C459   1.406       .  A
C459       O1753   1.374       .  S
C460        C465   1.406       .  A
C460        C469   1.410       .  A
O461        H477   0.992       .  S
O463       C1749   1.370       .  S
O463        H474   0.990   1_545  S
H464       C1744   1.084       .  S
C465        C466   1.391       .  A
C465       O1760   1.375       .  S
C466        C467   1.406       .  A
C466       H1761   1.084       .  S
C467        C468   1.399       .  A
C468        C469   1.396       .  A
C468        O472   1.372       .  S
C469        H473   1.084       .  S
O470       C1755   1.370       .  S
O470        H475   0.992       .  S
H471       C1756   1.083       .  S
O472        H476   0.992       .  S
C478        C479   1.408       .  A
C478        C483   1.396       .  A
C478        H488   1.084       .  S
C479        C480   1.394       .  A
C479        C484   1.461       .  S
C480        C481   1.383       .  A
C480        O485   1.367       .  S
C481        C482   1.401       .  A
C481        H486   1.084       .  S
C482        C483   1.399       .  A
C483        O487   1.371       .  S
C484        C489   1.402       .  A
C484        C493   1.407       .  A
O485        H501   0.990       .  S
O487        H498   0.991       .  S
C489        C490   1.387       .  A
C489        O494   1.374       .  S
C490        C491   1.407       .  A
C490        H495   1.084       .  S
C491        C492   1.396       .  A
C492        C493   1.392       .  A
C492        O496   1.371       .  S
C493        H497   1.084       .  S
O494        H499   0.992       .  S
O496        H500   0.992       .  S
C502        C503   1.410       .  A
C502        C507   1.402       .  A
C502        H512   1.084       .  S
C503        C504   1.399       .  A
C503        C508   1.470       .  S
C504        C505   1.387       .  A
C504        O509   1.372       .  S
C505        C506   1.399       .  A
C505        H510   1.082       .  S
C506        C507   1.401       .  A
C507        O511   1.372       .  S
C508        C513   1.410       .  A
C508        C517   1.394       .  A
O509        H525   0.991       .  S
O511        H522   0.991   1_554  S
C513        C514   1.395       .  A
C513        O518   1.371       .  S
C514        C515   1.396       .  A
C514        H519   1.080       .  S
C515        C516   1.419       .  A
C516        C517   1.394       .  A
C516        O520   1.372       .  S
C517        H521   1.084       .  S
O518       H1168   0.992       .  S
O520        H524   0.991       .  S
H523       O1163   0.992       .  S
C526        C527   1.404       .  A
C526       C3111   1.392       .  A
C526        H536   1.084   1_655  S
C527        C528   1.398   1_556  A
C527        C532   1.445   1_656  S
C528       C3109   1.380       .  A
C528        O533   1.374       .  S
C529        C530   1.402       .  A
C529       C3108   1.386       .  A
C529        H534   1.084       .  S
C530        C531   1.401   1_554  A
C531       C3106   1.398       .  A
C531        O535   1.369       .  S
C532        C537   1.400   1_554  A
C532        C541   1.400       .  A
O533        H549   0.990   1_554  S
O535        H546   0.993       .  S
C537        C538   1.386       .  A
C537        O542   1.371       .  S
C538        C539   1.396   1_556  A
C538        H543   1.083       .  S
C539        C540   1.395       .  A
C540        C541   1.384       .  A
C540        O544   1.369       .  S
C541        H545   1.084       .  S
O542        H547   0.992       .  S
O544        H548   0.988       .  S
C550        C551   1.401       .  A
C550        C555   1.393       .  A
C550        H560   1.082       .  S
C551        C552   1.397       .  A
C551        C556   1.447       .  S
C552        C553   1.387       .  A
C552        O557   1.371   1_554  S
C553        C554   1.396       .  A
C553        H558   1.080   1_554  S
C554        C555   1.404       .  A
C555        O559   1.372       .  S
C556        C561   1.392       .  A
C556        C565   1.402       .  A
O557        H573   0.991       .  S
O559        H570   0.991       .  S
C561        C562   1.390       .  A
C561        O566   1.372       .  S
C562        C563   1.417       .  A
C562        H567   1.082       .  S
C563        C564   1.399       .  A
C563       C1313   1.469       .  S
C564        C565   1.385       .  A
C564        O568   1.370       .  S
C565        H569   1.085       .  S
O566        H571   0.991       .  S
O568       H1862   0.993       .  S
H572       O1858   0.991       .  S
C574        C575   1.406       .  A
C574        C579   1.398   1_455  A
C574        H584   1.080       .  S
C575        C576   1.398       .  A
C575        C580   1.464       .  S
C576        C577   1.383       .  A
C576        O581   1.374       .  S
C577        C578   1.408   1_455  A
C577        H582   1.080       .  S
C578        C579   1.401       .  A
C578       C2596   1.477       .  S
C579       O3163   1.367       .  S
C580        C585   1.410       .  A
C580        C589   1.396       .  A
O581        H597   0.992       .  S
O583       C3159   1.367       .  S
O583        H594   0.992       .  S
C585        C586   1.391       .  A
C585        O590   1.371       .  S
C586        C587   1.392       .  A
C586        H591   1.073   1_554  S
C587        C588   1.409       .  A
C588        C589   1.391       .  A
C588        O592   1.371       .  S
C589        H593   1.084       .  S
O590        H595   0.992       .  S
O592        H596   0.991       .  S
C598        C599   1.409   1_556  A
C598        C603   1.407       .  A
C598        H608   1.082       .  S
C599        C600   1.420       .  A
C599        C604   1.490   1_554  S
C600        C601   1.394       .  A
C600        O605   1.368       .  S
C601        C602   1.393       .  A
C601        H606   1.083       .  S
C602        C603   1.406   1_554  A
C603        O607   1.368       .  S
C604        C609   1.415   1_556  A
C604        C613   1.401       .  A
O605        H621   0.987       .  S
O607        H618   0.990       .  S
C609        C610   1.396       .  A
C609        O614   1.372       .  S
C610        C611   1.399       .  A
C610        H615   1.081       .  S
C611        C612   1.411   1_554  A
C612        C613   1.394       .  A
C612        O616   1.373       .  S
C613        H617   1.081       .  S
O614        H619   0.991       .  S
O616        H620   0.992       .  S
C622        C623   1.409       .  A
C622        C627   1.398       .  A
C622        H632   1.072       .  S
C623        C624   1.423       .  A
C623        C628   1.496       .  S
C624        C625   1.396       .  A
C624        O629   1.370       .  S
C625        C626   1.398       .  A
C625        H630   1.082       .  S
C626        C627   1.403       .  A
C627        O631   1.367       .  S
C628        C633   1.414       .  A
C628        C637   1.410       .  A
O629        H645   0.992       .  S
O631        H642   0.991       .  S
C633        C634   1.391       .  A
C633        O638   1.368       .  S
C634        C635   1.396       .  A
C634        H639   1.082       .  S
C635        C636   1.404       .  A
C636        C637   1.396       .  A
C636        O640   1.373       .  S
C637        H641   1.083       .  S
O638        H643   0.991       .  S
O640        H644   0.988   1_554  S
N646        N653   1.445       .  S
N646       C1940   1.399       .  A
N646       C1937   1.362       .  A
C647       N1936   1.360       .  A
C647        C648   1.385       .  A
C647       C1271   1.511       .  S
C648        C649   1.370       .  A
C648        H651   1.079       .  S
C649        C650   1.377       .  A
C649        H652   1.082       .  S
C650       N1936   1.400       .  A
C650        C829   1.541       .  S
N653        C657   1.401       .  A
N653        C654   1.370       .  A
C654        C655   1.371       .  A
C654       C1247   1.475       .  S
C655        C656   1.353       .  A
C655        H658   1.080       .  S
C656        C657   1.390       .  A
C656        H659   1.083       .  S
C657        C715   1.536       .  S
N660        N667   1.442       .  S
N660        C664   1.398       .  A
N660        C661   1.353       .  A
C661        C662   1.379       .  A
C661       C3803   1.468       .  S
C662        C663   1.366       .  A
C662       H3245   1.082       .  S
C663        C664   1.380       .  A
C663        H666   1.082   1_545  S
C664        C831   1.535   1_545  S
H665       C3242   1.082       .  S
N667        C671   1.412       .  A
N667        C668   1.365       .  A
C668        C669   1.368       .  A
C668       C2498   1.471   1_545  S
C669        C670   1.359       .  A
C669        H672   1.081   1_545  S
C670        C671   1.392       .  A
C670        H673   1.083       .  S
C671        C709   1.556       .  S
N674        N681   1.438       .  S
N674        C678   1.396       .  A
N674        C675   1.355       .  A
C675        C676   1.382       .  A
C675       C1175   1.466       .  S
C676        C677   1.366       .  A
C676        H679   1.077       .  S
C677        C678   1.380       .  A
C677        H680   1.083       .  S
C678        C714   1.538       .  S
N681        C685   1.398       .  A
N681        C682   1.358       .  A
C682        C683   1.374       .  A
C682       C1160   1.472       .  S
C683        C684   1.375       .  A
C683        H686   1.083       .  S
C684        C685   1.388       .  A
C684        H687   1.084       .  S
C685        C814   1.534       .  S
C688        C689   1.389       .  A
C688        C693   1.406       .  A
C688       C1280   1.476       .  S
C689        C690   1.390       .  A
C689       C1184   1.454       .  S
C690        C691   1.403       .  A
C690       C1232   1.480       .  S
C691        C692   1.411       .  A
C691       C1256   1.479       .  S
C692        C693   1.420       .  A
C692       C1151   1.471       .  S
C693       C1199   1.475       .  S
O694        C710   1.302       .  A
O694       Zn700   2.233       .  S
C695        C728   1.552       .  S
C695        O711   1.290       .  A
C695        O708   1.298       .  A
O696        C709   1.287       .  A
O696       Cd703   2.126       .  S
O697        C715   1.289       .  A
O697       Cd706   2.221       .  S
O698        C712   1.288       .  A
O698       Cd702   2.181       .  S
O699        C710   1.289       .  A
O699       Cd702   2.134       .  S
Zn700       O711   2.116       .  S
Zn700       O713   2.212       .  S
Zn700       O705   2.052       .  S
O701        C712   1.297       .  A
O701       Cd706   2.184       .  S
Cd702       O704   2.184       .  S
Cd702       O705   2.097       .  S
Cd703       O707   2.148       .  S
Cd703       O716   2.096       .  S
Cd703       O705   2.009       .  S
O704        C714   1.282       .  A
O705       Cd706   2.112       .  S
Cd706       O708   2.244       .  S
O707        C714   1.288       .  A
C709        O713   1.291       .  A
C710        C756   1.547       .  S
C712        C742   1.542       .  S
C715        O716   1.283       .  A
N717        N724   1.439       .  S
N717        C721   1.390       .  A
N717        C718   1.352       .  A
C718        C719   1.376       .  A
C718       C1136   1.463       .  S
C719        C720   1.368       .  A
C719        H722   1.076       .  S
C720        C721   1.388       .  A
C720        H723   1.081       .  S
C721        C852   1.557       .  S
N724       C2018   1.389       .  A
N724        C725   1.354       .  A
C725       C2016   1.381       .  A
C725       C1112   1.468       .  S
C726       C2015   1.378   1_545  A
C726        C727   1.373       .  A
C726        H729   1.082       .  S
C727        C728   1.387       .  A
C727        H730   1.081       .  S
C728       N2014   1.389   1_545  A
N731        N738   1.445       .  S
N731        C735   1.395       .  A
N731        C732   1.353       .  A
C732        C733   1.377       .  A
C732       C1079   1.469       .  S
C733        C734   1.370       .  A
C733        H736   1.076       .  S
C734        C735   1.383       .  A
C734        H737   1.078       .  S
C735        C854   1.556       .  S
N738        C742   1.396       .  A
N738        C739   1.352       .  A
C739        C740   1.363       .  A
C739       C1055   1.458       .  S
C740        C741   1.363       .  A
C740        H743   1.080       .  S
C741        C742   1.381       .  A
C741        H744   1.081       .  S
N745       N3332   1.451   1_455  S
N745        C749   1.395       .  A
N745        C746   1.357       .  A
C746        C747   1.372       .  A
C746       C1040   1.475       .  S
C747        C748   1.358       .  A
C747        H750   1.082       .  S
C748        C749   1.382       .  A
C748        H751   1.084       .  S
C749        C837   1.540       .  S
N752       N3325   1.452       .  S
N752        C756   1.391       .  A
N752        C753   1.354       .  A
C753        C754   1.387       .  A
C753       C1016   1.497       .  S
C754        C755   1.365       .  A
C754        H757   1.080       .  S
C755        C756   1.384       .  A
C755        H758   1.079       .  S
C759       C3340   1.404       .  A
C759        C764   1.394       .  A
C759       C1031   1.465       .  S
C760       C3339   1.388       .  A
C760        C761   1.383       .  A
C760       C1064   1.450       .  S
C761        C762   1.384       .  A
C761       C1127   1.457       .  S
C762       C3343   1.398       .  A
C762       C2297   1.459       .  S
C763       C3342   1.394       .  A
C763        C764   1.390       .  A
C763       C2378   1.465       .  S
C764       C1103   1.460       .  S
N765        N772   1.425       .  S
N765        C769   1.384       .  A
N765        C766   1.340       .  A
C766        C767   1.377       .  A
C766        C983   1.455       .  S
C767        C768   1.367       .  A
C767        H770   1.083       .  S
C768        C769   1.388       .  A
C768        H771   1.080       .  S
C769        C856   1.529       .  S
N772        C776   1.388       .  A
N772        C773   1.346       .  A
C773        C774   1.384       .  A
C773        C959   1.473       .  S
C774        C775   1.367       .  A
C774        H777   1.082       .  S
C775        C776   1.387       .  A
C775        H778   1.083       .  S
C776        C834   1.537       .  S
N779        N786   1.422       .  S
N779        C783   1.387       .  A
N779        C780   1.353       .  A
C780        C781   1.369       .  A
C780        C944   1.468       .  S
C781        C782   1.371       .  A
C781        H784   1.078       .  S
C782        C783   1.389       .  A
C782        H785   1.082       .  S
C783        C851   1.536       .  S
N786        C790   1.385       .  A
N786        C787   1.352       .  A
C787        C788   1.381       .  A
C787        C911   1.480       .  S
C788        C789   1.380       .  A
C788       H3371   1.081       .  S
C789        C790   1.389       .  A
C789        H792   1.082       .  S
C790        C828   1.550       .  S
H791       C3368   1.083       .  S
N793        N800   1.431       .  S
N793        C797   1.392       .  A
N793        C794   1.358       .  A
C794        C795   1.374       .  A
C794        C896   1.475       .  S
C795        C796   1.370       .  A
C795        H798   1.073       .  S
C796        C797   1.380       .  A
C796        H799   1.078       .  S
C797        C833   1.548       .  S
N800        C804   1.392       .  A
N800        C801   1.356       .  A
C801        C802   1.367       .  A
C801        C872   1.460       .  S
C802        C803   1.359       .  A
C802        H805   1.083       .  S
C803        C804   1.388       .  A
C803        H806   1.078       .  S
C804        C857   1.530       .  S
C807        C808   1.400       .  A
C807        C812   1.401       .  A
C807        C992   1.459       .  S
C808        C809   1.399       .  A
C808        C920   1.474       .  S
C809        C810   1.394       .  A
C809        C863   1.459       .  S
C810        C811   1.410       .  A
C810        C968   1.481       .  S
C811        C812   1.412       .  A
C811        C935   1.498       .  S
C812        C887   1.472       .  S
O813        C829   1.293       .  A
C814        O830   1.293       .  A
C814        O827   1.290       .  A
O815        C828   1.281       .  A
O815       Cd822   2.107       .  S
O816        C834   1.296       .  A
O817       C3411   1.294   1_545  A
O817      Cd2111   2.199   1_655  S
O818        C829   1.284       .  A
O818       Cd821   2.150       .  S
Zn819      O2765   2.183   1_456  S
Zn819       O832   2.225       .  S
Zn819       O824   2.057       .  S
O820       C2121   1.286       .  A
O820       Cd825   2.161       .  S
Cd821      O2107   2.183   1_455  S
Cd821      O1468   2.220       .  S
Cd822       O826   2.100       .  S
Cd822      O3415   2.090   1_455  S
Cd822       O824   2.023       .  S
O823        C833   1.292       .  A
O823      Cd1466   2.232       .  S
O824      Cd2760   2.080   1_455  S
Cd825       O827   2.172       .  S
Cd825      O2759   2.080       .  S
O826       C2123   1.279       .  A
C828        O832   1.296       .  A
O830      Zn2754   2.177       .  S
C831       O3397   1.295   1_565  A
C831       O2110   1.286       .  A
C833       O2116   1.284       .  A
C834        O835   1.286       .  A
O835      Cd3402   2.115       .  S
O836        C852   1.290       .  A
O836       Zn842   2.096       .  S
C837        O853   1.300       .  A
C837        O850   1.288       .  A
O838        C851   1.279       .  A
O838       Cd845   2.086       .  S
O839        C857   1.279       .  A
O839       Cd848   2.209       .  S
O840        C854   1.299       .  A
O840       Cd844   2.195       .  S
O841        C852   1.299       .  A
O841       Cd844   2.254       .  S
Zn842       O853   2.213       .  S
Zn842       O855   2.187       .  S
Zn842       O847   2.042       .  S
O843        C854   1.295       .  A
O843       Cd848   2.223       .  S
Cd844       O846   2.222       .  S
Cd844       O847   2.104       .  S
Cd845       O849   2.070       .  S
Cd845       O858   2.084       .  S
Cd845       O847   1.999       .  S
O846        C856   1.291       .  A
O847       Cd848   2.091       .  S
Cd848       O850   2.134       .  S
O849        C856   1.276       .  A
C851        O855   1.286       .  A
C857        O858   1.278       .  A
C859        C860   1.404       .  A
C859        C864   1.393       .  A
C859        H869   1.083       .  S
C860        C861   1.399       .  A
C860        C865   1.451       .  S
C861        C862   1.383       .  A
C861        O866   1.370   1_556  S
C862        C863   1.397       .  A
C862        H867   1.085       .  S
C863        C864   1.398       .  A
C864        O868   1.369       .  S
C865        C870   1.390       .  A
C865        C874   1.394       .  A
O866        H882   0.985       .  S
O868        H879   0.992       .  S
C870       C3451   1.392       .  A
C870        O875   1.366       .  S
C871       C3450   1.394   1_455  A
C871        C872   1.390       .  A
C871        H876   1.083       .  S
C872        C873   1.405       .  A
C873       C3454   1.391   1_455  A
C873        O877   1.372       .  S
C874       C3453   1.386       .  A
C874        H878   1.076       .  S
O875        H880   0.991   1_556  S
O877        H881   0.988       .  S
C883        C884   1.411       .  A
C883        C888   1.409       .  A
C883        H893   1.083       .  S
C884        C885   1.403       .  A
C884        C889   1.471       .  S
C885        C886   1.385       .  A
C885        O890   1.366       .  S
C886        C887   1.395       .  A
C886        H891   1.082       .  S
C887        C888   1.408       .  A
C888        O892   1.371       .  S
C889        C894   1.407       .  A
C889        C898   1.403       .  A
O890        H906   0.990       .  S
O892        H903   0.991       .  S
C894        C895   1.382       .  A
C894        O899   1.370       .  S
C895        C896   1.399       .  A
C895        H900   1.083       .  S
C896        C897   1.406       .  A
C897        C898   1.404       .  A
C897        O901   1.369       .  S
C898        H902   1.083       .  S
O899        H904   0.992       .  S
O901        H905   0.991       .  S
C907        C908   1.406       .  A
C907       C3492   1.378       .  A
C907        H917   1.081       .  S
C908        C909   1.418       .  A
C908        C913   1.494       .  S
C909        C910   1.406       .  A
C909        O914   1.369       .  S
C910       C3491   1.400       .  A
C910        H915   1.080       .  S
C911       C3490   1.402       .  A
C911        C912   1.402       .  A
C912       C3487   1.378   1_455  A
C912        O916   1.368       .  S
C913        C918   1.407       .  A
C913        C922   1.408       .  A
O914        H930   0.992       .  S
O916        H927   0.990   1_455  S
C918        C919   1.397       .  A
C918        O923   1.361       .  S
C919        C920   1.394       .  A
C919        H924   1.079       .  S
C920        C921   1.400       .  A
C921        C922   1.393       .  A
C921        O925   1.372       .  S
C922        H926   1.075       .  S
O923        H928   0.992       .  S
O925        H929   0.989       .  S
C931        C932   1.389       .  A
C931        C936   1.387       .  A
C931        H941   1.080       .  S
C932        C933   1.401       .  A
C932       C2227   1.456   1_545  S
C933        C934   1.389       .  A
C933       O2228   1.367       .  S
C934        C935   1.407       .  A
C934        H939   1.085       .  S
C935        C936   1.406       .  A
C936        O940   1.353       .  S
C937        C942   1.403       .  A
C937        C946   1.399       .  A
C937       C2222   1.465       .  S
O938       C2223   1.373       .  S
O938        H954   0.989       .  S
O940        H951   0.991       .  S
C942        C943   1.395       .  A
C942        O947   1.367       .  S
C943        C944   1.399       .  A
C943        H948   1.082       .  S
C944        C945   1.407       .  A
C945        C946   1.389       .  A
C945        O949   1.371       .  S
C946        H950   1.083       .  S
O947        H952   0.992       .  S
O949        H953   0.992       .  S
C955        C956   1.408       .  A
C955       C2250   1.393       .  A
C955        H965   1.078       .  S
C956       C2247   1.392       .  A
C956        C961   1.481       .  S
C957       C2246   1.405       .  A
C957        C958   1.388       .  A
C957        O962   1.368       .  S
C958        C959   1.406       .  A
C958        H963   1.081       .  S
C959        C960   1.398       .  A
C960       C2245   1.390       .  A
C960        O964   1.371       .  S
C961        C966   1.422       .  A
C961        C970   1.399       .  A
O962        H978   0.992       .  S
O964        H975   0.991       .  S
C966        C967   1.387   1_565  A
C966        O971   1.372       .  S
C967        C968   1.395       .  A
C967        H972   1.082       .  S
C968        C969   1.405       .  A
C969        C970   1.390   1_545  A
C969        O973   1.367       .  S
C970        H974   1.080       .  S
O971        H976   0.993       .  S
O973        H977   0.992       .  S
C979        C980   1.401       .  A
C979        C984   1.386       .  A
C979        H989   1.064       .  S
C980        C981   1.407       .  A
C980        C985   1.475       .  S
C981        C982   1.394       .  A
C981        O986   1.369       .  S
C982        C983   1.402       .  A
C982        H987   1.084       .  S
C983        C984   1.387       .  A
C984        O988   1.368       .  S
C985        C990   1.410       .  A
C985        C994   1.406       .  A
O986       H1002   0.991       .  S
O988        H999   0.993       .  S
C990        C991   1.400       .  A
C990        O995   1.371       .  S
C991        C992   1.401       .  A
C991        H996   1.083       .  S
C992        C993   1.395       .  A
C993        C994   1.377       .  A
C993        O997   1.373       .  S
C994        H998   1.079       .  S
O995       H1000   0.992       .  S
O997       H1001   0.991       .  S
C1003      C1004   1.400       .  A
C1003      C1008   1.397   1_545  A
C1003      H1013   1.083       .  S
C1004      C1005   1.413       .  A
C1004      C1009   1.469       .  S
C1005      C3586   1.392   1_545  A
C1005      O3590   1.375       .  S
C1006      C3585   1.389       .  A
C1006      C3587   1.398       .  A
C1006      H1011   1.082       .  S
C1007      C3586   1.397       .  A
C1007      C1008   1.406       .  A
C1007      C2052   1.469       .  S
C1008      O2302   1.373       .  S
C1009      C1014   1.394       .  A
C1009      C1018   1.400       .  A
O1010      C3585   1.372       .  S
O1010      H1026   0.992       .  S
O1012      C2298   1.372       .  S
O1012      H1023   0.992       .  S
C1014      C1015   1.402       .  A
C1014      O1019   1.374       .  S
C1015      C1016   1.416       .  A
C1015      H1020   1.078       .  S
C1016      C1017   1.409       .  A
C1017      C1018   1.391       .  A
C1017      O3601   1.368       .  S
C1018      H3602   1.083       .  S
O1019      H1024   0.992       .  S
O1021      C3597   1.364       .  S
O1021      H1025   0.992       .  S
H1022      C3598   1.082   1_455  S
C1027      C1028   1.411       .  A
C1027      C1032   1.389       .  A
C1027      H1037   1.083       .  S
C1028      C3609   1.399       .  A
C1028      C1033   1.468       .  S
C1029      C3608   1.406       .  A
C1029      C1030   1.395       .  A
C1029      O1034   1.372       .  S
C1030      C3611   1.404       .  A
C1030      H1035   1.084       .  S
C1031      C3610   1.408       .  A
C1031      C1032   1.396       .  A
C1032      O1036   1.371       .  S
C1033      C1038   1.403       .  A
C1033      C1042   1.397       .  A
O1034      H1050   0.991       .  S
O1036      H1047   0.992       .  S
C1038      C1039   1.397       .  A
C1038      O1043   1.370       .  S
C1039      C1040   1.410       .  A
C1039      H1044   1.082       .  S
C1040      C1041   1.412       .  A
C1041      C1042   1.380       .  A
C1041      O3625   1.371       .  S
C1042      H3626   1.082       .  S
O1043      H1048   0.990       .  S
O1045      C3621   1.371       .  S
O1045      H1049   0.992       .  S
H1046      C3622   1.085       .  S
C1051      C1052   1.390       .  A
C1051      C1056   1.385       .  A
C1051      H1061   1.085       .  S
C1052      C1053   1.406       .  A
C1052      C1057   1.440       .  S
C1053      C1054   1.391       .  A
C1053      O1058   1.373       .  S
C1054      C1055   1.397       .  A
C1054      H1059   1.079       .  S
C1055      C1056   1.412       .  A
C1056      O1060   1.372       .  S
C1057      C1062   1.397       .  A
C1057      C1066   1.400       .  A
O1058      H1074   0.991       .  S
O1060      H1071   0.991       .  S
C1062      C1063   1.387       .  A
C1062      O1067   1.372       .  S
C1063      C1064   1.403       .  A
C1063      H1068   1.084       .  S
C1064      C1065   1.396       .  A
C1065      C1066   1.384       .  A
C1065      O1069   1.370       .  S
C1066      H1070   1.085       .  S
O1067      H1072   0.992       .  S
O1069      H1073   0.989       .  S
C1075      C1076   1.397       .  A
C1075      C1080   1.396       .  A
C1075      H1085   1.085       .  S
C1076      C1077   1.396       .  A
C1076      C1081   1.452       .  S
C1077      C1078   1.391       .  A
C1077      O1082   1.371       .  S
C1078      C1079   1.411       .  A
C1078      H1083   1.084       .  S
C1079      C1080   1.402       .  A
C1080      O1084   1.372       .  S
C1081      C1086   1.393       .  A
C1081      C1090   1.396       .  A
O1082      H1098   0.991       .  S
O1084      H1095   0.992       .  S
C1086      C1087   1.385       .  A
C1086      O1091   1.365       .  S
C1087      C1088   1.403       .  A
C1087      H1092   1.084       .  S
C1088      C1089   1.404       .  A
C1088      C2053   1.471       .  S
C1089      C1090   1.397       .  A
C1089      O1093   1.375       .  S
C1090      H1094   1.082       .  S
O1091      H1096   0.992       .  S
O1093      H1097   0.992       .  S
C1099      C1100   1.397       .  A
C1099      C1104   1.389       .  A
C1099      H2399   1.083       .  S
C1100      C1101   1.414       .  A
C1100      C1105   1.462       .  S
C1101      C1102   1.394       .  A
C1101      O1106   1.372       .  S
C1102      C1103   1.394       .  A
C1102      H1107   1.084       .  S
C1103      C1104   1.407       .  A
C1104      O2398   1.372       .  S
C1105      C1110   1.400       .  A
C1105      C1114   1.403       .  A
O1106      H1122   0.991       .  S
O1108      C2394   1.373       .  S
O1108      H1119   0.991       .  S
H1109      C2389   1.084       .  S
C1110      C1111   1.391       .  A
C1110      O2405   1.370       .  S
C1111      C1112   1.408       .  A
C1111      H2406   1.083       .  S
C1112      C1113   1.401       .  A
C1113      C1114   1.392       .  A
C1113      O1117   1.369       .  S
C1114      H1118   1.084       .  S
O1115      C2400   1.375       .  S
O1115      H1120   0.992       .  S
H1116      C2401   1.084       .  S
O1117      H1121   0.989       .  S
C1123      C1124   1.410       .  A
C1123      C1128   1.391       .  A
C1123      H1133   1.084       .  S
C1124      C1125   1.397       .  A
C1124      C1129   1.462       .  S
C1125      C1126   1.387       .  A
C1125      O1130   1.367       .  S
C1126      C1127   1.400       .  A
C1126      H1131   1.083       .  S
C1127      C1128   1.397       .  A
C1128      O1132   1.371       .  S
C1129      C1134   1.397       .  A
C1129      C1138   1.406       .  A
O1130      H1146   0.992       .  S
O1132      H1143   0.991       .  S
C1134      C1135   1.384       .  A
C1134      O1139   1.372       .  S
C1135      C1136   1.406       .  A
C1135      H1140   1.085       .  S
C1136      C1137   1.400       .  A
C1137      C1138   1.402       .  A
C1137      O1141   1.374       .  S
C1138      H1142   1.084       .  S
O1139      H1144   0.992       .  S
O1141      H1145   0.991       .  S
C1147      C1148   1.409       .  A
C1147      C1152   1.402       .  A
C1147      H1157   1.083       .  S
C1148      C1149   1.406       .  A
C1148      C1153   1.511       .  S
C1149      C1150   1.389       .  A
C1149      O1154   1.364       .  S
C1150      C1151   1.401       .  A
C1150      H1155   1.082       .  S
C1151      C1152   1.406       .  A
C1152      O1156   1.371       .  S
C1153      C1158   1.426       .  A
C1153      C1162   1.421       .  A
O1154      H1170   0.991       .  S
O1156      H1167   0.992       .  S
C1158      C1159   1.387       .  A
C1158      O1163   1.371       .  S
C1159      C1160   1.393       .  A
C1159      H1164   1.085       .  S
C1160      C1161   1.397       .  A
C1161      C1162   1.403       .  A
C1161      O1165   1.371       .  S
C1162      H1166   1.077       .  S
O1165      H1169   0.992       .  S
C1171      C1172   1.394       .  A
C1171      C3756   1.400   1_455  A
C1171      H1181   1.075       .  S
C1172      C1173   1.400   1_455  A
C1172      C1177   1.452       .  S
C1173      C3754   1.379       .  A
C1173      O1178   1.370   1_655  S
C1174      C3753   1.386       .  A
C1174      C1175   1.402       .  A
C1174      H1179   1.083       .  S
C1175      C1176   1.393       .  A
C1176      C3751   1.400       .  A
C1176      O1180   1.367       .  S
C1177      C1182   1.400       .  A
C1177      C1186   1.404       .  A
O1178      H1194   0.990   1_455  S
O1180      H1191   0.987       .  S
C1182      C1183   1.382       .  A
C1182      O1187   1.370       .  S
C1183      C1184   1.398       .  A
C1183      H1188   1.085       .  S
C1184      C1185   1.399       .  A
C1185      C1186   1.395       .  A
C1185      O1189   1.368       .  S
C1186      H1190   1.083       .  S
O1187      H1192   0.992       .  S
O1189      H1193   0.991       .  S
C1195      C1196   1.407       .  A
C1195      C1200   1.400       .  A
C1195      H1205   1.083       .  S
C1196      C1197   1.416       .  A
C1196      C1201   1.495       .  S
C1197      C1198   1.394       .  A
C1197      O1202   1.368       .  S
C1198      C1199   1.397       .  A
C1198      H1203   1.084       .  S
C1199      C1200   1.402       .  A
C1200      O1204   1.368       .  S
C1201      C1206   1.416       .  A
C1201      C1210   1.408       .  A
O1202      H1218   0.991       .  S
O1204      H1215   0.991       .  S
C1206      C1207   1.395       .  A
C1206      O1211   1.372       .  S
C1207      C1208   1.395       .  A
C1207      H1212   1.082       .  S
C1208      C1209   1.403       .  A
C1208      C1958   1.467       .  S
C1209      C1210   1.399       .  A
C1209      O1213   1.372       .  S
C1210      H1214   1.079       .  S
O1211      H1216   0.991       .  S
O1213      H2507   0.990       .  S
H1217      O2503   0.991       .  S
C1219      C1220   1.406       .  A
C1219      C1224   1.396       .  A
C1219      H1229   1.083       .  S
C1220      C1221   1.418       .  A
C1220      C1225   1.476   1_655  S
C1221      C1222   1.383       .  A
C1221      O1226   1.371       .  S
C1222      C1223   1.396       .  A
C1222      H1227   1.084       .  S
C1223      C1224   1.406       .  A
C1223      C3241   1.460       .  S
C1224      O3808   1.368       .  S
C1225      C1230   1.403       .  A
C1225      C1234   1.403       .  A
O1226      H1242   0.991       .  S
O1228      C3804   1.369       .  S
O1228      H1239   0.991       .  S
C1230      C1231   1.397       .  A
C1230      O1235   1.371   1_455  S
C1231      C1232   1.401       .  A
C1231      H1236   1.069       .  S
C1232      C1233   1.403       .  A
C1233      C1234   1.394       .  A
C1233      O1237   1.375       .  S
C1234      H1238   1.082       .  S
O1235      H1240   0.991       .  S
O1237      H1241   0.992       .  S
C1243      C1244   1.416       .  A
C1243      C1248   1.399       .  A
C1243      H1253   1.081       .  S
C1244      C1245   1.417       .  A
C1244      C1249   1.508       .  S
C1245      C1246   1.387       .  A
C1245      O1250   1.368       .  S
C1246      C1247   1.396       .  A
C1246      H1251   1.082       .  S
C1247      C1248   1.408       .  A
C1248      O1252   1.371       .  S
C1249      C1254   1.400       .  A
C1249      C1258   1.408       .  A
O1250      H1266   0.991       .  S
O1252      H1263   0.991       .  S
C1254      C1255   1.390       .  A
C1254      O1259   1.365       .  S
C1255      C1256   1.397       .  A
C1255      H1260   1.075       .  S
C1256      C1257   1.408       .  A
C1257      C1258   1.406       .  A
C1257      O1261   1.370       .  S
C1258      H1262   1.078       .  S
O1259      H1264   0.988       .  S
O1261      H1265   0.991       .  S
C1267      C1268   1.392       .  A
C1267      C1272   1.380       .  A
C1267      H1277   1.078       .  S
C1268      C1269   1.409       .  A
C1268      C1273   1.485       .  S
C1269      C1270   1.410       .  A
C1269      O1274   1.373       .  S
C1270      C1271   1.412       .  A
C1270      H1275   1.074       .  S
C1271      C1272   1.419       .  A
C1272      O1276   1.364       .  S
C1273      C1278   1.413       .  A
C1273      C1282   1.406       .  A
O1274      H1290   0.991       .  S
O1276      H1287   0.992       .  S
C1278      C1279   1.387       .  A
C1278      O1283   1.368       .  S
C1279      C1280   1.392       .  A
C1279      H1284   1.085       .  S
C1280      C1281   1.407       .  A
C1281      C1282   1.402       .  A
C1281      O1285   1.368       .  S
C1282      H1286   1.083       .  S
O1283      H1288   0.993       .  S
O1285      H1289   0.988       .  S
N1291      N1298   1.439       .  S
C1292      C1293   1.389       .  A
C1292      C1916   1.512       .  S
C1293      C1294   1.368       .  A
C1293      H1296   1.078   1_545  S
C1294      C1295   1.378       .  A
C1294      H1297   1.083   1_545  S
C1295      C1474   1.547       .  S
N1298      C1302   1.407       .  A
N1298      C1299   1.361       .  A
C1299      C1300   1.373       .  A
C1299      C1892   1.480       .  S
C1300      C1301   1.363       .  A
C1300      H1303   1.080       .  S
C1301      C1302   1.390       .  A
C1301      H1304   1.083       .  S
C1302      C1360   1.552       .  S
N1305      N1312   1.443       .  S
N1305      C1309   1.394       .  A
N1305      C1306   1.352       .  A
C1306      C1307   1.372       .  A
C1306      C4448   1.472       .  S
C1307      C1308   1.373       .  A
C1307      H3890   1.081       .  S
C1308      C1309   1.389       .  A
C1308      H1311   1.084       .  S
C1309      C1476   1.536       .  S
H1310      C3887   1.075       .  S
N1312      C1316   1.393       .  A
N1312      C1313   1.347       .  A
C1313      C1314   1.372       .  A
C1314      C1315   1.372       .  A
C1314      H1317   1.076   1_554  S
C1315      C1316   1.377       .  A
C1315      H1318   1.074       .  S
C1316      C1354   1.547       .  S
N1319      N1326   1.437       .  S
N1319      C1323   1.404       .  A
N1319      C1320   1.354       .  A
C1320      C1321   1.374       .  A
C1320      C1820   1.467       .  S
C1321      C1322   1.363       .  A
C1321      H1324   1.082       .  S
C1322      C1323   1.386       .  A
C1322      H1325   1.083       .  S
C1323      C1359   1.545       .  S
N1326      C1330   1.397       .  A
N1326      C1327   1.351       .  A
C1327      C1328   1.380       .  A
C1327      C1805   1.478       .  S
C1328      C1329   1.368       .  A
C1328      H1331   1.081       .  S
C1329      C1330   1.386       .  A
C1329      H1332   1.084       .  S
C1330      C1459   1.538       .  S
C1333      C1334   1.399       .  A
C1333      C1338   1.412       .  A
C1333      C1925   1.477       .  S
C1334      C1335   1.391       .  A
C1334      C1829   1.466       .  S
C1335      C1336   1.402       .  A
C1335      C1877   1.472       .  S
C1336      C1337   1.408       .  A
C1336      C1901   1.477       .  S
C1337      C1338   1.414       .  A
C1337      C1796   1.480       .  S
C1338      C1844   1.478       .  S
O1339      C1355   1.297       .  A
O1339     Zn1345   2.219       .  S
C1340      C1373   1.556       .  S
C1340      O1356   1.294       .  A
C1340      O1353   1.298       .  A
O1341      C1354   1.293       .  A
O1341     Cd1348   2.167       .  S
O1342      C1360   1.289       .  A
O1342     Cd1351   2.220       .  S
O1343      C1357   1.290       .  A
O1343     Cd1347   2.186       .  S
O1344      C1355   1.290       .  A
O1344     Cd1347   2.149       .  S
Zn1345     O1356   2.131       .  S
Zn1345     O1358   2.156       .  S
Zn1345     O1350   2.060       .  S
O1346      C1357   1.298       .  A
O1346     Cd1351   2.184       .  S
Cd1347     O1349   2.183       .  S
Cd1347     O1350   2.103       .  S
Cd1348     O1352   2.161       .  S
Cd1348     O1361   2.159       .  S
Cd1348     O1350   2.017       .  S
O1349      C1359   1.283       .  A
O1350     Cd1351   2.109       .  S
Cd1351     O1353   2.239       .  S
O1352      C1359   1.293       .  A
C1354      O1358   1.286       .  A
C1355      C1401   1.551       .  S
C1357      C1387   1.543       .  S
C1360      O1361   1.293       .  A
N1362      N1369   1.451       .  S
N1362      C1366   1.398       .  A
N1362      C1363   1.350       .  A
C1363      C1364   1.381       .  A
C1363      C1781   1.465       .  S
C1364      C1365   1.364       .  A
C1364      H1367   1.081       .  S
C1365      C1366   1.384       .  A
C1365      H1368   1.084       .  S
C1366      C1497   1.556       .  S
N1369      C1370   1.356       .  A
C1370      C1757   1.477       .  S
C1371      C1372   1.370       .  A
C1371      H1374   1.083       .  S
C1372      C1373   1.386       .  A
C1372      H1375   1.079       .  S
N1376      N1383   1.439       .  S
N1376      C1380   1.390       .  A
N1376      C1377   1.356       .  A
C1377      C1378   1.382       .  A
C1377      C1724   1.483       .  S
C1378      C1379   1.373       .  A
C1378      H1381   1.080       .  S
C1379      C1380   1.383       .  A
C1379      H1382   1.083       .  S
C1380      C1499   1.535       .  S
N1383      C1387   1.387       .  A
N1383      C1384   1.350       .  A
C1384      C1385   1.371       .  A
C1384      C1700   1.462       .  S
C1385      C1386   1.372       .  A
C1385      H1388   1.082       .  S
C1386      C1387   1.378       .  A
C1386      H1389   1.076       .  S
N1390      N3977   1.451   1_455  S
N1390      C1394   1.389       .  A
N1390      C1391   1.358       .  A
C1391      C1392   1.371       .  A
C1391      C1685   1.483       .  S
C1392      C1393   1.356       .  A
C1392      H1395   1.078       .  S
C1393      C1394   1.381       .  A
C1393      H1396   1.085       .  S
C1394      C1482   1.530       .  S
N1397      N3970   1.442       .  S
N1397      C1401   1.389       .  A
N1397      C1398   1.352       .  A
C1398      C1399   1.379       .  A
C1398      C1661   1.470       .  S
C1399      C1400   1.367       .  A
C1399      H1402   1.080       .  S
C1400      C1401   1.383       .  A
C1400      H1403   1.072       .  S
C1404      C3985   1.388   1_455  A
C1404      C1409   1.389   1_565  A
C1404      C1676   1.470       .  S
C1405      C3984   1.389       .  A
C1405      C1406   1.395       .  A
C1405      C1709   1.462       .  S
C1406      C1407   1.395       .  A
C1406      C1772   1.460       .  S
C1407      C3988   1.412   1_565  A
C1408      C3987   1.399   1_455  A
C1408      C1409   1.408       .  A
C1409      C1748   1.472       .  S
N1410      N1417   1.424       .  S
N1410      C1414   1.387       .  A
N1410      C1411   1.342       .  A
C1411      C1412   1.377       .  A
C1411      C1628   1.467       .  S
C1412      C1413   1.367       .  A
C1412      H1415   1.076       .  S
C1413      C1414   1.386       .  A
C1413      H1416   1.083       .  S
C1414      C1501   1.525       .  S
N1417      C1421   1.389       .  A
N1417      C1418   1.356       .  A
C1418      C1419   1.386       .  A
C1418      C1604   1.489       .  S
C1419      C1420   1.373       .  A
C1419      H1422   1.081       .  S
C1420      C1421   1.379       .  A
C1420      H1423   1.081       .  S
C1421      C1479   1.534       .  S
N1424      N1431   1.432       .  S
N1424      C1428   1.391       .  A
N1424      C1425   1.359       .  A
C1425      C1426   1.378       .  A
C1425      C1589   1.467       .  S
C1426      C1427   1.357       .  A
C1426      H1429   1.083       .  S
C1427      C1428   1.383       .  A
C1427      H1430   1.082       .  S
C1428      C1496   1.525       .  S
N1431      C1435   1.395       .  A
N1431      C1432   1.362       .  A
C1432      C1433   1.374       .  A
C1432      C1556   1.485       .  S
C1433      C1434   1.373       .  A
C1433      H4016   1.083       .  S
C1434      C1435   1.394       .  A
C1434      H1437   1.083       .  S
C1435      C1473   1.552       .  S
H1436      C4013   1.083       .  S
N1438      N1445   1.441       .  S
N1438      C1442   1.400       .  A
N1438      C1439   1.362       .  A
C1439      C1440   1.379       .  A
C1439      C1541   1.464       .  S
C1440      C1441   1.367       .  A
C1440      H1443   1.082       .  S
C1441      C1442   1.386       .  A
C1441      H1444   1.083   1_455  S
C1442      C1478   1.549       .  S
N1445      C1449   1.385       .  A
N1445      C1446   1.342       .  A
C1446      C1447   1.368       .  A
C1446      C1517   1.461       .  S
C1447      C1448   1.374       .  A
C1447      H1450   1.076       .  S
C1448      C1449   1.393       .  A
C1448      H1451   1.081       .  S
C1449      C1502   1.543       .  S
C1452      C1453   1.400       .  A
C1452      C1457   1.396       .  A
C1452      C1637   1.460       .  S
C1453      C1454   1.404       .  A
C1453      C1565   1.478       .  S
C1454      C1455   1.407       .  A
C1454      C1508   1.471       .  S
C1455      C1456   1.412       .  A
C1455      C1613   1.484       .  S
C1456      C1457   1.398       .  A
C1456      C1580   1.477       .  S
C1457      C1532   1.463       .  S
O1458      C1474   1.297   1_565  A
O1458     Zn2109   2.172   1_554  S
C1459      O1475   1.287       .  A
C1459      O1472   1.291       .  A
O1460      C1473   1.282       .  A
O1460     Cd1467   2.100       .  S
O1461      C1479   1.290       .  A
O1461     Cd2115   2.200       .  S
O1462      C4056   1.295       .  A
O1463      C1474   1.293       .  A
O1463     Cd1466   2.194   1_554  S
Zn1464     O2103   2.174       .  S
Zn1464     O4700   2.203   1_455  S
Zn1464     O1477   2.231       .  S
Zn1464     O1469   2.057       .  S
O1465     Cd1470   2.176       .  S
Cd1466     O2114   2.114   1_545  S
Cd1467     O1471   2.126   1_565  S
Cd1467     O4060   2.101   1_455  S
Cd1467     O1469   2.024       .  S
O1468      C1478   1.290       .  A
O1469     Cd2111   2.099   1_565  S
O1469     Cd4695   2.081   1_455  S
Cd1470     O2106   2.203   1_554  S
Cd1470     O1472   2.162       .  S
Cd1470     O4694   2.075   1_554  S
C1473      O1477   1.296       .  A
O1475     Zn4689   2.154   1_554  S
C1476      O4042   1.284       .  A
C1479      O1480   1.285       .  A
O1480     Cd4047   2.136       .  S
O1481      C1497   1.291       .  A
O1481     Zn1487   2.126       .  S
C1482      O1498   1.299       .  A
C1482      O1495   1.285       .  A
O1483      C1496   1.281       .  A
O1483     Cd1490   2.089       .  S
O1484      C1502   1.271       .  A
O1484     Cd1493   2.155       .  S
O1485      C1499   1.300       .  A
O1485     Cd1489   2.207       .  S
O1486      C1497   1.295       .  A
O1486     Cd1489   2.233       .  S
Zn1487     O1498   2.199       .  S
Zn1487     O1500   2.153       .  S
Zn1487     O1492   2.039       .  S
O1488      C1499   1.286       .  A
O1488     Cd1493   2.150       .  S
Cd1489     O1491   2.207       .  S
Cd1489     O1492   2.098       .  S
Cd1490     O1494   2.090       .  S
Cd1490     O1503   2.151       .  S
Cd1490     O1492   2.009       .  S
O1491      C1501   1.290       .  A
O1492     Cd1493   2.082       .  S
Cd1493     O1495   2.115       .  S
O1494      C1501   1.281       .  A
C1496      O1500   1.284       .  A
C1502      O1503   1.289       .  A
C1504      C1505   1.404       .  A
C1504      C1509   1.397       .  A
C1504      H1514   1.081       .  S
C1505      C1506   1.407       .  A
C1505      C1510   1.462       .  S
C1506      C1507   1.382       .  A
C1506      O1511   1.373       .  S
C1507      C1508   1.395       .  A
C1507      H1512   1.084       .  S
C1508      C1509   1.404       .  A
C1509      O1513   1.371       .  S
C1510      C1515   1.405       .  A
C1510      C1519   1.401       .  A
O1511      H1527   0.993       .  S
O1513      H1524   0.990       .  S
C1515      C4096   1.392       .  A
C1515      O1520   1.369       .  S
C1516      C4095   1.388   1_455  A
C1516      C1517   1.391       .  A
C1516      H1521   1.069       .  S
C1517      C1518   1.407       .  A
C1518      C4099   1.390   1_455  A
C1518      O1522   1.375       .  S
C1519      C4098   1.385       .  A
C1519      H1523   1.083       .  S
O1520      H1525   0.991       .  S
O1522      H1526   0.992       .  S
C1528      C1529   1.410       .  A
C1528      C1533   1.399       .  A
C1528      H1538   1.084       .  S
C1529      C1530   1.406       .  A
C1529      C1534   1.470       .  S
C1530      C1531   1.382       .  A
C1530      O1535   1.366       .  S
C1531      C1532   1.394       .  A
C1531      H1536   1.085       .  S
C1532      C1533   1.400       .  A
C1533      O1537   1.370       .  S
C1534      C1539   1.407       .  A
C1534      C1543   1.409       .  A
O1535      H1551   0.993       .  S
O1537      H1548   0.992       .  S
C1539      C1540   1.384       .  A
C1539      O1544   1.371       .  S
C1540      C1541   1.398       .  A
C1540      H1545   1.084       .  S
C1541      C1542   1.403       .  A
C1542      C1543   1.401       .  A
C1542      O1546   1.373       .  S
C1543      H1547   1.083       .  S
O1544      H1549   0.989       .  S
O1546      H1550   0.991       .  S
C1552      C1553   1.401       .  A
C1552      C4137   1.389       .  A
C1552      H1562   1.081       .  S
C1553      C1554   1.409       .  A
C1553      C1558   1.483       .  S
C1554      C1555   1.403       .  A
C1554      O1559   1.372       .  S
C1555      C4136   1.407       .  A
C1555      H1560   1.070       .  S
C1556      C4135   1.403       .  A
C1556      C1557   1.398       .  A
C1557      C4132   1.382       .  A
C1557      O1561   1.361       .  S
C1558      C1563   1.405       .  A
C1558      C1567   1.401       .  A
O1559      H1575   0.991       .  S
O1561      H1572   0.985       .  S
C1563      C1564   1.397       .  A
C1563      O1568   1.359       .  S
C1564      C1565   1.397       .  A
C1564      H1569   1.084       .  S
C1565      C1566   1.401       .  A
C1566      C1567   1.390       .  A
C1566      O1570   1.371       .  S
C1567      H1571   1.071       .  S
O1568      H1573   0.990       .  S
O1570      H1574   0.992       .  S
C1576      C1577   1.408       .  A
C1576      C1581   1.398       .  A
C1576      H1586   1.084       .  S
C1577      C1578   1.406       .  A
C1578      C1579   1.384       .  A
C1579      C1580   1.399       .  A
C1579      H1584   1.085       .  S
C1580      C1581   1.407       .  A
C1581      O1585   1.365       .  S
C1582      C1587   1.406       .  A
C1582      C1591   1.408       .  A
O1583      H1599   0.990   1_545  S
O1585      H1596   0.989       .  S
C1587      C1588   1.394       .  A
C1587      O1592   1.367       .  S
C1588      C1589   1.401       .  A
C1588      H1593   1.084       .  S
C1589      C1590   1.407       .  A
C1590      C1591   1.390       .  A
C1590      O1594   1.373       .  S
C1591      H1595   1.083       .  S
O1592      H1597   0.992       .  S
O1594      H1598   0.991       .  S
C1600      C1601   1.409       .  A
C1600      H1610   1.079       .  S
C1601      C1606   1.493       .  S
C1602      C1603   1.392       .  A
C1602      O1607   1.369       .  S
C1603      C1604   1.407       .  A
C1603      H1608   1.077       .  S
C1604      C1605   1.413       .  A
C1605      O1609   1.372       .  S
C1606      C1611   1.423       .  A
C1606      C1615   1.405       .  A
O1607      H1623   0.992       .  S
O1609      H1620   0.991       .  S
C1611      C1612   1.392       .  A
C1611      O1616   1.372       .  S
C1612      C1613   1.396       .  A
C1612      H1617   1.084       .  S
C1613      C1614   1.405       .  A
C1614      C1615   1.397       .  A
C1614      O1618   1.371       .  S
C1615      H1619   1.080       .  S
O1616      H1621   0.993       .  S
O1618      H1622   0.992       .  S
C1624      C1625   1.404       .  A
C1624      C1629   1.390       .  A
C1624      H1634   1.081       .  S
C1625      C1626   1.403       .  A
C1625      C1630   1.457       .  S
C1626      C1627   1.389       .  A
C1626      O1631   1.373       .  S
C1627      C1628   1.407       .  A
C1627      H1632   1.084       .  S
C1628      C1629   1.396       .  A
C1629      O1633   1.371       .  S
C1630      C1635   1.403       .  A
C1630      C1639   1.402       .  A
O1631      H1647   0.988       .  S
O1633      H1644   0.992       .  S
C1635      C1636   1.394       .  A
C1635      O1640   1.371       .  S
C1636      C1637   1.406       .  A
C1636      H1641   1.083       .  S
C1637      C1638   1.393       .  A
C1638      C1639   1.379       .  A
C1638      O1642   1.374       .  S
C1639      H1643   1.082       .  S
O1640      H1645   0.991       .  S
O1642      H1646   0.989       .  S
C1648      C1649   1.400       .  A
C1648      C1653   1.390       .  A
C1648      H1658   1.080       .  S
C1649      C1650   1.412       .  A
C1649      C1654   1.461       .  S
C1650      C4231   1.395       .  A
C1650      O4235   1.374       .  S
C1651      C4230   1.393       .  A
C1651      C4232   1.397       .  A
C1651      H1656   1.082       .  S
C1652      C4231   1.394       .  A
C1652      C1653   1.401       .  A
C1654      C1659   1.397       .  A
C1654      C1663   1.400       .  A
O1655      C4230   1.369       .  S
O1655      H1671   0.991       .  S
O1657      H1668   0.987   1_565  S
C1659      C1660   1.394       .  A
C1659      O1664   1.371       .  S
C1660      C1661   1.414       .  A
C1660      H1665   1.083       .  S
C1661      C1662   1.399       .  A
C1662      C1663   1.388       .  A
C1662      O4246   1.369       .  S
C1663      H4247   1.079       .  S
O1664      H1669   0.992       .  S
O1666      C4242   1.362   1_455  S
O1666      H1670   0.989       .  S
H1667      C4243   1.085       .  S
C1672      C1673   1.410       .  A
C1672      C1677   1.393       .  A
C1672      H1682   1.083       .  S
C1673      C4254   1.413       .  A
C1673      C1678   1.484       .  S
C1674      C4253   1.401       .  A
C1674      C1675   1.394       .  A
C1674      O1679   1.373       .  S
C1675      C4256   1.405       .  A
C1675      H1680   1.084       .  S
C1676      C4255   1.397       .  A
C1676      C1677   1.399       .  A
C1677      O1681   1.371       .  S
C1678      C1683   1.408       .  A
C1678      C1687   1.407       .  A
O1679      H1695   0.991       .  S
O1681      H1692   0.991       .  S
C1683      C1684   1.392       .  A
C1683      O1688   1.371       .  S
C1684      C1685   1.409       .  A
C1684      H1689   1.083       .  S
C1685      C1686   1.409       .  A
C1686      C1687   1.391       .  A
C1686      O4270   1.370   1_455  S
C1687      H4271   1.083   1_455  S
O1688      H1693   0.992       .  S
O1690      C4266   1.372       .  S
O1690      H1694   0.993       .  S
H1691      C4267   1.084       .  S
C1696      C1697   1.386       .  A
C1696      C1701   1.384       .  A
C1696      H1706   1.081       .  S
C1697      C1698   1.406       .  A
C1697      C1702   1.450       .  S
C1698      C1699   1.396       .  A
C1698      O1703   1.370       .  S
C1699      C1700   1.398       .  A
C1699      H1704   1.079       .  S
C1700      C1701   1.411       .  A
C1701      O1705   1.370       .  S
C1702      C1707   1.401       .  A
C1702      C1711   1.401       .  A
O1703      H1719   0.990       .  S
O1705      H1716   0.992       .  S
C1707      C1708   1.383       .  A
C1707      O1712   1.369       .  S
C1708      C1709   1.399       .  A
C1708      H1713   1.085       .  S
C1709      C1710   1.402       .  A
C1710      C1711   1.393       .  A
C1710      O1714   1.370       .  S
C1711      H1715   1.084       .  S
O1712      H1717   0.992       .  S
O1714      H1718   0.991       .  S
C1720      C1721   1.400       .  A
C1720      C1725   1.404       .  A
C1720      H1730   1.083       .  S
C1721      C1722   1.397       .  A
C1721      C1726   1.471       .  S
C1722      C1723   1.393       .  A
C1722      O1727   1.364       .  S
C1723      C1724   1.407       .  A
C1723      H1728   1.084       .  S
C1724      C1725   1.408       .  A
C1725      O1729   1.371       .  S
C1726      C1731   1.400       .  A
C1726      C1735   1.399       .  A
O1727      H1743   0.992       .  S
O1729      H1740   0.992       .  S
C1731      C1732   1.395       .  A
C1731      O1736   1.366       .  S
C1732      C1733   1.399       .  A
C1732      H1737   1.081   1_455  S
C1733      C1734   1.402       .  A
C1734      C1735   1.401       .  A
C1734      O1738   1.373       .  S
C1735      H1739   1.075       .  S
O1736      H1741   0.992       .  S
O1738      H1742   0.990       .  S
C1744      C1745   1.395       .  A
C1744      C1749   1.395       .  A
C1745      C1746   1.408       .  A
C1745      C1750   1.468       .  S
C1746      C1747   1.396       .  A
C1746      O1751   1.371       .  S
C1747      C1748   1.401       .  A
C1747      H1752   1.081       .  S
C1748      C1749   1.406       .  A
C1750      C1755   1.397       .  A
C1750      C1759   1.405   1_545  A
O1751      H1767   0.992       .  S
O1753      H1764   0.992       .  S
C1755      C1756   1.392       .  A
C1756      C1757   1.409   1_545  A
C1757      C1758   1.405       .  A
C1758      C1759   1.402       .  A
C1758      O1762   1.370       .  S
C1759      H1763   1.083       .  S
O1760      H1765   0.992       .  S
O1762      H1766   0.992       .  S
C1768      C1769   1.406       .  A
C1768      C1773   1.392       .  A
C1768      H1778   1.083       .  S
C1769      C1770   1.402       .  A
C1769      C1774   1.459       .  S
C1770      C1771   1.387       .  A
C1770      O1775   1.370       .  S
C1771      C1772   1.399       .  A
C1771      H1776   1.084       .  S
C1772      C1773   1.399       .  A
C1773      O1777   1.373       .  S
C1774      C1779   1.401       .  A
C1774      C1783   1.403       .  A
O1775      H1791   0.992       .  S
O1777      H1788   0.992       .  S
C1779      C1780   1.391       .  A
C1779      O1784   1.373       .  S
C1780      C1781   1.405       .  A
C1780      H1785   1.083       .  S
C1781      C1782   1.403       .  A
C1782      C1783   1.393       .  A
C1782      O1786   1.370       .  S
C1783      H1787   1.084       .  S
O1784      H1789   0.992       .  S
O1786      H1790   0.992       .  S
C1792      C1793   1.412       .  A
C1792      C1797   1.395       .  A
C1792      H1802   1.079       .  S
C1793      C1794   1.405       .  A
C1793      C1798   1.491       .  S
C1794      C1795   1.389       .  A
C1794      O1799   1.367       .  S
C1795      C1796   1.400       .  A
C1795      H1800   1.075       .  S
C1796      C1797   1.401       .  A
C1797      O1801   1.372   1_554  S
C1798      C1803   1.405       .  A
C1798      C1807   1.415       .  A
O1799      H1815   0.992       .  S
O1801      H1812   0.992       .  S
C1803      C1804   1.394       .  A
C1803      O1808   1.371       .  S
C1804      C1805   1.405       .  A
C1804      H1809   1.081       .  S
C1805      C1806   1.402       .  A
C1806      C1807   1.394       .  A
C1806      O1810   1.374       .  S
C1807      H1811   1.080       .  S
O1808      H2458   0.993   1_554  S
O1810      H1814   0.992       .  S
H1813      O2453   0.990       .  S
C1816      C1817   1.397       .  A
C1816      C4401   1.401   1_455  A
C1816      H1826   1.083       .  S
C1817      C1818   1.404   1_455  A
C1817      C1822   1.462       .  S
C1818      C4399   1.387   1_556  A
C1818      O1823   1.371   1_656  S
C1819      C4398   1.390       .  A
C1819      C1820   1.398       .  A
C1819      H1824   1.085       .  S
C1820      C1821   1.406       .  A
C1821      C4396   1.399       .  A
C1821      O1825   1.373   1_554  S
C1822      C1827   1.404       .  A
C1822      C1831   1.409   1_556  A
O1823      H1839   0.991   1_454  S
O1825      H1836   0.990       .  S
C1827      C1828   1.389   1_556  A
C1827      O1832   1.374       .  S
C1828      C1829   1.407       .  A
C1828      H1833   1.083       .  S
C1829      C1830   1.399       .  A
C1830      C1831   1.396       .  A
C1830      O1834   1.371       .  S
C1831      H1835   1.082       .  S
O1832      H1837   0.991       .  S
O1834      H1838   0.992       .  S
C1840      C1841   1.409       .  A
C1840      C1845   1.400       .  A
C1840      H1850   1.083       .  S
C1841      C1842   1.417       .  A
C1841      C1846   1.485       .  S
C1842      C1843   1.380       .  A
C1842      O1847   1.370   1_554  S
C1843      C1844   1.391       .  A
C1843      H1848   1.081       .  S
C1844      C1845   1.404       .  A
C1845      O1849   1.368       .  S
C1846      C1851   1.416       .  A
C1846      C1855   1.404       .  A
O1847      H1863   0.993       .  S
O1849      H1860   0.991       .  S
C1851      C1852   1.392       .  A
C1851      O1856   1.372       .  S
C1852      C1853   1.400       .  A
C1852      H1857   1.084       .  S
C1853      C1854   1.402       .  A
C1854      C1855   1.394       .  A
C1854      O1858   1.373   1_554  S
C1855      H1859   1.079   1_554  S
O1856      H1861   0.990       .  S
C1864      C1865   1.402       .  A
C1864      C1869   1.396       .  A
C1864      H1874   1.082       .  S
C1865      C1866   1.415       .  A
C1865      C1870   1.474   1_655  S
C1866      C1867   1.389       .  A
C1866      O1871   1.373       .  S
C1867      C1868   1.399       .  A
C1867      H1872   1.084       .  S
C1868      C1869   1.406       .  A
C1868      C3886   1.470       .  S
C1869      O4453   1.368       .  S
C1870      C1875   1.406       .  A
C1870      C1879   1.400       .  A
O1871      H1887   0.992       .  S
O1873      C4449   1.370       .  S
O1873      H1884   0.992       .  S
C1875      C1876   1.396       .  A
C1875      O1880   1.371   1_455  S
C1876      C1877   1.403       .  A
C1876      H1881   1.074       .  S
C1877      C1878   1.402       .  A
C1878      C1879   1.389       .  A
C1878      O1882   1.378       .  S
C1879      H1883   1.083       .  S
O1880      H1885   0.991       .  S
O1882      H1886   0.992       .  S
C1888      C1889   1.414       .  A
C1888      C1893   1.398       .  A
C1888      H1898   1.082   1_554  S
C1889      C1890   1.399       .  A
C1889      C1894   1.492       .  S
C1890      C1891   1.387       .  A
C1890      O1895   1.370       .  S
C1891      C1892   1.405       .  A
C1891      H1896   1.081       .  S
C1892      C1893   1.412       .  A
C1893      O1897   1.372   1_554  S
C1894      C1899   1.425       .  A
C1894      C1903   1.407       .  A
O1895      H1911   0.991       .  S
O1897      H1908   0.990       .  S
C1899      C1900   1.383       .  A
C1899      O1904   1.370       .  S
C1900      C1901   1.389       .  A
C1900      H1905   1.079       .  S
C1901      C1902   1.403       .  A
C1902      C1903   1.398       .  A
C1902      O1906   1.370       .  S
C1903      H1907   1.081       .  S
O1904      H1909   0.992       .  S
O1906      H1910   0.992   1_554  S
C1912      C1913   1.401       .  A
C1912      C1917   1.399       .  A
C1912      H1922   1.073       .  S
C1913      C1914   1.390       .  A
C1913      C1918   1.479       .  S
C1914      C1915   1.395   1_565  A
C1914      O1919   1.371       .  S
C1915      C1916   1.410       .  A
C1915      H1920   1.063       .  S
C1916      C1917   1.416   1_545  A
C1917      O1921   1.370       .  S
C1918      C1923   1.398       .  A
C1918      C1927   1.404       .  A
O1919      H1935   0.991       .  S
O1921      H1932   0.992       .  S
C1923      C1924   1.393       .  A
C1923      O1928   1.357       .  S
C1924      C1925   1.398       .  A
C1924      H1929   1.083       .  S
C1925      C1926   1.402       .  A
C1926      C1927   1.393       .  A
C1926      O1930   1.363       .  S
C1927      H1931   1.084       .  S
O1928      H1933   0.991       .  S
O1930      H1934   0.986   1_554  S
N1936      N1943   1.441       .  S
C1937      C1938   1.388       .  A
C1937      C2561   1.507   1_545  S
C1938      C1939   1.371   1_545  A
C1938      H1941   1.082   1_545  S
C1939      C1940   1.377   1_565  A
C1939      H1942   1.082       .  S
C1940      C2119   1.545   1_545  S
N1943      C1947   1.397       .  A
N1943      C1944   1.367       .  A
C1944      C1945   1.377       .  A
C1944      C2537   1.484       .  S
C1945      C1946   1.356       .  A
C1945      H1948   1.079       .  S
C1946      C1947   1.387       .  A
C1946      H1949   1.083       .  S
C1947      C2005   1.537       .  S
N1950      N1957   1.441       .  S
N1950      C1954   1.396       .  A
N1950      C1951   1.351       .  A
C1951      C1952   1.378       .  A
C1951      C5093   1.464       .  S
C1952      C1953   1.368       .  A
C1952      H4535   1.082       .  S
C1953      C1954   1.381       .  A
C1953      H1956   1.082       .  S
C1954      C2121   1.530       .  S
H1955      C4532   1.083       .  S
N1957      C1961   1.409       .  A
N1957      C1958   1.364       .  A
C1958      C1959   1.369       .  A
C1959      C1960   1.358       .  A
C1959      H1962   1.082       .  S
C1960      C1961   1.390       .  A
C1960      H1963   1.083       .  S
C1961      C1999   1.552       .  S
N1964      N1971   1.439       .  S
N1964      C1968   1.403       .  A
N1964      C1965   1.361       .  A
C1965      C1966   1.378       .  A
C1965      C2465   1.469       .  S
C1966      C1967   1.362       .  A
C1966      H1969   1.078       .  S
C1967      C1968   1.381       .  A
C1967      H1970   1.081       .  S
C1968      C2004   1.556       .  S
N1971      C1975   1.395       .  A
N1971      C1972   1.354       .  A
C1972      C1973   1.371       .  A
C1972      C2450   1.471       .  S
C1973      C1974   1.374       .  A
C1973      H1976   1.082       .  S
C1974      C1975   1.394       .  A
C1974      H1977   1.084       .  S
C1975      C2104   1.535       .  S
C1978      C1979   1.385       .  A
C1978      C1983   1.404       .  A
C1978      C2570   1.474       .  S
C1979      C1980   1.386       .  A
C1979      C2474   1.453       .  S
C1980      C1981   1.403       .  A
C1980      C2522   1.477       .  S
C1981      C1982   1.413       .  A
C1981      C2546   1.479       .  S
C1982      C1983   1.418       .  A
C1982      C2441   1.467       .  S
C1983      C2489   1.475       .  S
O1984      C2000   1.303       .  A
O1984     Zn1990   2.251       .  S
C1985      C2018   1.556       .  S
C1985      O2001   1.289       .  A
C1985      O1998   1.296       .  A
O1986      C1999   1.283       .  A
O1986     Cd1993   2.104       .  S
O1987      C2005   1.290       .  A
O1987     Cd1996   2.223       .  S
O1988      C2002   1.297       .  A
O1988     Cd1992   2.227       .  S
O1989      C2000   1.290       .  A
O1989     Cd1992   2.135       .  S
Zn1990     O2001   2.102       .  S
Zn1990     O2003   2.201       .  S
Zn1990     O1995   2.053       .  S
O1991      C2002   1.299       .  A
O1991     Cd1996   2.184       .  S
Cd1992     O1994   2.233       .  S
Cd1992     O1995   2.107       .  S
Cd1993     O1997   2.140       .  S
Cd1993     O2006   2.101       .  S
Cd1993     O1995   2.012       .  S
O1994      C2004   1.289       .  A
O1995     Cd1996   2.112       .  S
Cd1996     O1998   2.246       .  S
O1997      C2004   1.287       .  A
C1999      O2003   1.288       .  A
C2000      C2046   1.553       .  S
C2002      C2032   1.558       .  S
C2005      O2006   1.283       .  A
N2007      N2014   1.439       .  S
N2007      C2011   1.392       .  A
N2007      C2008   1.351       .  A
C2008      C2009   1.381       .  A
C2008      C2426   1.470       .  S
C2009      C2010   1.371       .  A
C2009      H2012   1.076       .  S
C2010      C2011   1.386       .  A
C2010      H2013   1.083       .  S
C2011      C2142   1.559       .  S
N2014      C2015   1.353       .  A
C2015      C2402   1.467       .  S
C2016      C2017   1.369       .  A
C2016      H2019   1.083       .  S
C2017      C2018   1.384       .  A
C2017      H2020   1.076       .  S
N2021      N2028   1.450       .  S
N2021      C2025   1.392       .  A
N2021      C2022   1.357       .  A
C2022      C2023   1.377       .  A
C2022      C2369   1.463       .  S
C2023      C2024   1.367       .  A
C2023      H2026   1.083       .  S
C2024      C2025   1.387       .  A
C2024      H2027   1.079       .  S
C2025      C2144   1.559       .  S
N2028      C2032   1.394       .  A
N2028      C2029   1.356       .  A
C2029      C2030   1.377       .  A
C2029      C2345   1.470       .  S
C2030      C2031   1.369       .  A
C2030      H2033   1.082       .  S
C2031      C2032   1.387       .  A
C2031      H2034   1.080       .  S
N2035      N4622   1.450   1_455  S
N2035      C2039   1.401       .  A
N2035      C2036   1.364       .  A
C2036      C2037   1.372       .  A
C2036      C2330   1.482       .  S
C2037      C2038   1.355       .  A
C2037      H2040   1.083       .  S
C2038      C2039   1.378       .  A
C2038      H2041   1.085       .  S
C2039      C2127   1.531       .  S
N2042      N4615   1.454       .  S
N2042      C2046   1.400       .  A
N2042      C2043   1.362       .  A
C2043      C2044   1.384       .  A
C2043      C2306   1.483       .  S
C2044      C2045   1.364       .  A
C2044      H2047   1.084       .  S
C2045      C2046   1.381       .  A
C2045      H2048   1.077       .  S
C2049      C4630   1.399   1_455  A
C2049      C2054   1.398       .  A
C2049      C2321   1.486       .  S
C2050      C4629   1.396       .  A
C2050      C2051   1.404       .  A
C2050      C2354   1.475       .  S
C2051      C2052   1.405       .  A
C2051      C2417   1.466       .  S
C2052      C4633   1.403       .  A
C2053      C4632   1.402   1_445  A
C2053      C2054   1.405   1_545  A
C2054      C2393   1.458       .  S
N2055      N2062   1.438       .  S
N2055      C2059   1.396       .  A
N2055      C2056   1.356       .  A
C2056      C2057   1.376       .  A
C2056      C2273   1.459       .  S
C2057      C2058   1.362       .  A
C2057      H2060   1.083       .  S
C2058      C2059   1.387       .  A
C2058      H2061   1.080       .  S
C2059      C2146   1.532       .  S
N2062      C2066   1.401       .  A
N2062      C2063   1.361       .  A
C2063      C2064   1.384       .  A
C2063      C2249   1.482       .  S
C2064      C2065   1.359       .  A
C2064      H2067   1.082       .  S
C2065      C2066   1.380       .  A
C2065      H2068   1.083       .  S
C2066      C2124   1.532       .  S
N2069      N2076   1.428       .  S
N2069      C2073   1.389       .  A
N2069      C2070   1.349       .  A
C2070      C2071   1.364       .  A
C2070      C2234   1.454       .  S
C2071      C2072   1.356       .  A
C2071      H2074   1.076       .  S
C2072      C2073   1.386       .  A
C2072      H2075   1.082       .  S
C2073      C2141   1.530       .  S
N2076      C2080   1.394       .  A
N2076      C2077   1.353       .  A
C2077      C2078   1.380       .  A
C2077      C2201   1.481       .  S
C2078      C2079   1.376       .  A
C2078      H4661   1.082       .  S
C2079      C2080   1.390       .  A
C2079      H2082   1.081       .  S
C2080      C2118   1.557       .  S
H2081      C4658   1.081       .  S
N2083      N2090   1.433       .  S
N2083      C2087   1.396       .  A
N2083      C2084   1.355       .  A
C2084      C2085   1.378       .  A
C2084      C2186   1.468       .  S
C2085      C2086   1.365       .  A
C2085      H2088   1.081       .  S
C2086      C2087   1.386       .  A
C2086      H2089   1.083       .  S
C2087      C2123   1.534       .  S
N2090      C2094   1.401       .  A
N2090      C2091   1.354       .  A
C2091      C2092   1.377       .  A
C2091      C2162   1.465       .  S
C2092      C2093   1.363       .  A
C2092      H2095   1.083       .  S
C2093      C2094   1.386       .  A
C2093      H2096   1.082       .  S
C2094      C2147   1.543       .  S
C2097      C2098   1.404       .  A
C2097      C2102   1.407       .  A
C2097      C2282   1.475       .  S
C2098      C2099   1.401       .  A
C2098      C2210   1.480       .  S
C2099      C2100   1.404       .  A
C2099      C2153   1.485       .  S
C2100      C2101   1.423       .  A
C2100      C2258   1.488       .  S
C2101      C2102   1.414       .  A
C2101      C2225   1.484       .  S
C2102      C2177   1.487       .  S
O2103      C2119   1.295       .  A
C2104      O2120   1.292       .  A
C2104      O2117   1.290       .  A
O2105      C2118   1.282       .  A
O2105     Cd2112   2.119       .  S
O2106      C2124   1.288       .  A
O2107      C4701   1.293       .  A
O2108      C2119   1.287   1_545  A
O2108     Cd2111   2.161       .  S
Zn2109     O4055   2.094   1_556  S
Zn2109     O2122   2.200       .  S
Zn2109     O2114   2.021       .  S
O2110     Cd2115   2.159       .  S
Cd2112     O2116   2.126   1_565  S
Cd2112     O4705   2.078   1_455  S
Cd2112     O2114   2.029       .  S
O2113      C2123   1.291       .  A
O2114     Cd4050   2.112   1_455  S
Cd2115     O2117   2.165       .  S
Cd2115     O4049   2.077       .  S
C2118      O2122   1.290       .  A
O2120     Zn4044   2.176       .  S
C2121      O4687   1.294       .  A
C2124      O2125   1.282       .  A
O2125     Cd4692   2.110       .  S
O2126      C2142   1.290       .  A
O2126     Zn2132   2.106       .  S
C2127      O2143   1.297       .  A
C2127      O2140   1.293       .  A
O2128      C2141   1.277       .  A
O2128     Cd2135   2.066       .  S
O2129      C2147   1.290       .  A
O2129     Cd2138   2.226       .  S
O2130      C2144   1.296       .  A
O2130     Cd2134   2.165       .  S
O2131      C2142   1.299       .  A
O2131     Cd2134   2.257       .  S
Zn2132     O2143   2.184       .  S
Zn2132     O2145   2.176       .  S
Zn2132     O2137   2.052       .  S
O2133      C2144   1.299       .  A
O2133     Cd2138   2.246       .  S
Cd2134     O2136   2.210       .  S
Cd2134     O2137   2.096       .  S
Cd2135     O2139   2.083       .  S
Cd2135     O2148   2.093       .  S
Cd2135     O2137   1.987       .  S
O2136      C2146   1.289       .  A
O2137     Cd2138   2.104       .  S
Cd2138     O2140   2.152       .  S
O2139      C2146   1.280       .  A
C2141      O2145   1.285       .  A
C2147      O2148   1.279       .  A
C2149      C2150   1.408       .  A
C2149      C2154   1.404       .  A
C2149      H2159   1.082       .  S
C2150      C2151   1.400       .  A
C2150      C2155   1.468       .  S
C2151      C2152   1.395       .  A
C2151      O2156   1.373   1_556  S
C2152      C2153   1.409       .  A
C2152      H2157   1.084       .  S
C2153      C2154   1.404       .  A
C2154      O2158   1.375       .  S
C2155      C2160   1.399       .  A
C2155      C2164   1.401       .  A
O2156      H2172   0.989   1_554  S
O2158      H2169   0.992       .  S
C2160      C4741   1.390       .  A
C2160      O2165   1.371       .  S
C2161      C4740   1.398       .  A
C2161      C2162   1.397   1_655  A
C2161      H2166   1.084   1_655  S
C2162      C2163   1.403   1_455  A
C2163      C4744   1.390       .  A
C2163      O2167   1.367   1_655  S
C2164      C4743   1.393       .  A
C2164      H2168   1.069       .  S
O2165      H2170   0.992       .  S
O2167      H2171   0.991       .  S
C2173      C2174   1.406       .  A
C2173      C2178   1.386       .  A
C2173      H2183   1.075       .  S
C2174      C2175   1.400       .  A
C2174      C2179   1.490       .  S
C2175      C2176   1.398       .  A
C2175      O2180   1.366       .  S
C2176      C2177   1.410       .  A
C2176      H2181   1.083       .  S
C2177      C2178   1.402       .  A
C2178      O2182   1.373       .  S
C2179      C2184   1.402       .  A
C2179      C2188   1.415       .  A
O2180      H2196   0.991       .  S
O2182      H2193   0.989       .  S
C2184      C2185   1.386       .  A
C2184      O2189   1.369       .  S
C2185      C2186   1.399       .  A
C2185      H2190   1.083       .  S
C2186      C2187   1.401       .  A
C2187      C2188   1.396       .  A
C2187      O2191   1.371       .  S
C2188      H2192   1.076       .  S
O2189      H2194   0.993       .  S
O2191      H2195   0.988       .  S
C2197      C2198   1.395       .  A
C2197      C4782   1.388       .  A
C2197      H2207   1.081       .  S
C2198      C2199   1.410       .  A
C2198      C2203   1.483       .  S
C2199      C2200   1.397       .  A
C2199      O2204   1.364       .  S
C2200      C4781   1.403       .  A
C2200      H2205   1.083       .  S
C2201      C4780   1.400       .  A
C2201      C2202   1.405   1_455  A
C2202      C4777   1.389       .  A
C2202      O2206   1.369       .  S
C2203      C2208   1.400       .  A
C2203      C2212   1.406       .  A
O2204      H2220   0.991       .  S
O2206      H2217   0.991       .  S
C2208      C2209   1.398       .  A
C2208      O2213   1.365       .  S
C2209      C2210   1.404       .  A
C2209      H2214   1.080       .  S
C2210      C2211   1.399       .  A
C2211      C2212   1.372       .  A
C2211      O2215   1.368       .  S
C2212      H2216   1.080       .  S
O2213      H2218   0.992       .  S
O2215      H2219   0.991       .  S
C2221      C2222   1.404       .  A
C2221      C2226   1.399       .  A
C2221      H2231   1.083       .  S
C2222      C2223   1.409       .  A
C2223      C2224   1.382       .  A
C2224      C2225   1.401       .  A
C2224      H2229   1.085       .  S
C2225      C2226   1.409       .  A
C2226      O2230   1.371       .  S
C2227      C2232   1.404       .  A
C2227      C2236   1.399       .  A
O2228      H2244   0.990   1_545  S
O2230      H2241   0.989       .  S
C2232      C2233   1.390       .  A
C2232      O2237   1.372   1_556  S
C2233      C2234   1.400       .  A
C2233      H2238   1.084       .  S
C2234      C2235   1.407       .  A
C2235      C2236   1.379       .  A
C2235      O2239   1.371       .  S
C2236      H2240   1.084   1_565  S
O2237      H2242   0.992       .  S
O2239      H2243   0.991       .  S
C2245      C2246   1.411       .  A
C2245      H2255   1.076       .  S
C2246      C2251   1.488       .  S
C2247      C2248   1.389       .  A
C2247      O2252   1.365       .  S
C2248      C2249   1.406       .  A
C2248      H2253   1.075       .  S
C2249      C2250   1.411       .  A
C2250      O2254   1.373       .  S
C2251      C2256   1.418       .  A
C2251      C2260   1.402       .  A
O2252      H2268   0.990       .  S
O2254      H2265   0.991       .  S
C2256      C2257   1.394       .  A
C2256      O2261   1.370       .  S
C2257      C2258   1.399       .  A
C2257      H2262   1.081       .  S
C2258      C2259   1.408       .  A
C2259      C2260   1.390       .  A
C2259      O2263   1.370       .  S
C2260      H2264   1.078       .  S
O2261      H2266   0.992       .  S
O2263      H2267   0.992       .  S
C2269      C2270   1.405       .  A
C2269      C2274   1.401       .  A
C2269      H2279   1.078       .  S
C2270      C2271   1.408       .  A
C2270      C2275   1.489       .  S
C2271      C2272   1.387       .  A
C2271      O2276   1.366       .  S
C2272      C2273   1.400       .  A
C2272      H2277   1.084       .  S
C2273      C2274   1.403       .  A
C2274      O2278   1.372       .  S
C2275      C2280   1.408       .  A
C2275      C2284   1.409       .  A
O2276      H2292   0.992       .  S
O2278      H2289   0.992   1_556  S
C2280      C2281   1.394       .  A
C2280      O2285   1.361       .  S
C2281      C2282   1.398       .  A
C2281      H2286   1.084       .  S
C2282      C2283   1.410       .  A
C2283      C2284   1.377       .  A
C2283      O2287   1.372       .  S
C2284      H2288   1.080       .  S
O2285      H2290   0.991       .  S
O2287      H2291   0.990       .  S
C2293      C2294   1.397       .  A
C2293      C2298   1.395       .  A
C2293      H2303   1.082       .  S
C2294      C2295   1.411       .  A
C2294      C2299   1.459       .  S
C2295      C4876   1.391       .  A
C2295      O4880   1.373       .  S
C2296      C4875   1.386   1_455  A
C2296      C4877   1.396       .  A
C2296      H2301   1.084       .  S
C2297      C4876   1.385       .  A
C2297      C2298   1.407       .  A
C2299      C2304   1.396       .  A
C2299      C2308   1.398       .  A
O2300      C4875   1.373       .  S
O2300      H2316   0.991       .  S
O2302      H2313   0.990       .  S
C2304      C2305   1.394       .  A
C2304      O2309   1.372       .  S
C2305      C2306   1.417       .  A
C2305      H2310   1.082       .  S
C2306      C2307   1.402       .  A
C2307      C2308   1.387       .  A
C2307      O4891   1.365       .  S
C2308      H4892   1.077       .  S
O2309      H2314   0.992       .  S
O2311      C4887   1.367       .  S
O2311      H2315   0.992       .  S
H2312      C4888   1.084       .  S
C2317      C2318   1.401       .  A
C2317      C2322   1.387       .  A
C2317      H2327   1.085       .  S
C2318      C4899   1.397       .  A
C2318      C2323   1.470       .  S
C2319      C4898   1.392       .  A
C2319      C2320   1.390       .  A
C2319      O2324   1.367       .  S
C2320      C4901   1.407       .  A
C2320      H2325   1.082       .  S
C2321      C4900   1.411       .  A
C2321      C2322   1.410       .  A
C2322      O2326   1.368       .  S
C2323      C2328   1.396       .  A
C2323      C2332   1.402       .  A
O2324      H2340   0.992       .  S
O2326      H2337   0.992       .  S
C2328      C2329   1.397       .  A
C2328      O2333   1.371       .  S
C2329      C2330   1.415       .  A
C2329      H2334   1.076       .  S
C2330      C2331   1.408       .  A
C2331      C2332   1.386       .  A
C2331      O4915   1.370       .  S
C2332      H4916   1.081   1_455  S
O2333      H2338   0.992       .  S
O2335      C4911   1.371       .  S
O2335      H2339   0.992       .  S
H2336      C4912   1.085       .  S
C2341      C2342   1.393       .  A
C2341      C2346   1.397       .  A
C2341      H2351   1.076       .  S
C2342      C2343   1.402       .  A
C2342      C2347   1.462       .  S
C2343      C2344   1.389       .  A
C2343      O2348   1.371       .  S
C2344      C2345   1.394       .  A
C2344      H2349   1.078       .  S
C2345      C2346   1.414       .  A
C2346      O2350   1.371       .  S
C2347      C2352   1.396       .  A
C2347      C2356   1.402       .  A
O2348      H2364   0.991       .  S
O2350      H2361   0.992       .  S
C2352      C2353   1.395       .  A
C2352      O2357   1.367       .  S
C2353      C2354   1.406       .  A
C2353      H2358   1.084       .  S
C2354      C2355   1.405       .  A
C2355      C2356   1.395       .  A
C2355      O2359   1.370       .  S
C2356      H2360   1.084       .  S
O2357      H2362   0.992       .  S
O2359      H2363   0.991       .  S
C2365      C2366   1.403       .  A
C2365      C2370   1.396       .  A
C2365      H2375   1.081       .  S
C2366      C2367   1.406       .  A
C2366      C2371   1.470       .  S
C2367      C2368   1.395       .  A
C2367      O2372   1.374       .  S
C2368      C2369   1.408       .  A
C2368      H2373   1.084       .  S
C2369      C2370   1.390       .  A
C2370      O2374   1.372       .  S
C2371      C2376   1.399       .  A
C2371      C2380   1.410       .  A
O2372      H2388   0.992       .  S
O2374      H2385   0.992       .  S
C2376      C2377   1.384       .  A
C2376      O2381   1.368       .  S
C2377      C2378   1.399       .  A
C2377      H2382   1.085       .  S
C2378      C2379   1.402       .  A
C2379      C2380   1.401       .  A
C2379      O2383   1.371       .  S
C2380      H2384   1.084       .  S
O2381      H2386   0.992       .  S
O2383      H2387   0.992       .  S
C2389      C2390   1.397   1_565  A
C2389      C2394   1.382       .  A
C2390      C2391   1.415       .  A
C2390      C2395   1.463       .  S
C2391      C2392   1.395       .  A
C2391      O2396   1.374       .  S
C2392      C2393   1.395   1_545  A
C2392      H2397   1.083       .  S
C2393      C2394   1.408       .  A
C2395      C2400   1.403       .  A
C2395      C2404   1.405   1_545  A
O2396      H2412   0.992       .  S
O2398      H2409   0.992       .  S
C2400      C2401   1.387       .  A
C2401      C2402   1.408   1_545  A
C2402      C2403   1.401       .  A
C2403      C2404   1.395       .  A
C2403      O2407   1.372       .  S
C2404      H2408   1.084       .  S
O2405      H2410   0.990       .  S
O2407      H2411   0.990       .  S
C2413      C2414   1.411       .  A
C2413      C2418   1.399       .  A
C2413      H2423   1.083       .  S
C2414      C2415   1.401       .  A
C2414      C2419   1.470       .  S
C2415      C2416   1.387       .  A
C2415      O2420   1.371       .  S
C2416      C2417   1.403       .  A
C2416      H2421   1.083       .  S
C2417      C2418   1.399       .  A
C2418      O2422   1.372       .  S
C2419      C2424   1.400       .  A
C2419      C2428   1.407       .  A
O2420      H2436   0.991       .  S
O2422      H2433   0.992       .  S
C2424      C2425   1.388       .  A
C2424      O2429   1.372       .  S
C2425      C2426   1.407       .  A
C2425      H2430   1.083       .  S
C2426      C2427   1.400       .  A
C2427      C2428   1.398       .  A
C2427      O2431   1.370       .  S
C2428      H2432   1.084       .  S
O2429      H2434   0.993       .  S
O2431      H2435   0.992       .  S
C2437      C2438   1.408       .  A
C2437      C2442   1.400       .  A
C2437      H2447   1.081       .  S
C2438      C2439   1.412       .  A
C2438      C2443   1.516       .  S
C2439      C2440   1.392       .  A
C2439      O2444   1.369       .  S
C2440      C2441   1.397       .  A
C2440      H2445   1.078       .  S
C2441      C2442   1.409       .  A
C2442      O2446   1.373       .  S
C2443      C2448   1.424       .  A
C2443      C2452   1.410       .  A
O2444      H2460   0.992       .  S
O2446      H2457   0.991       .  S
C2448      C2449   1.396       .  A
C2448      O2453   1.365       .  S
C2449      C2450   1.399       .  A
C2449      H2454   1.084       .  S
C2450      C2451   1.392       .  A
C2451      C2452   1.397       .  A
C2451      O2455   1.370       .  S
C2452      H2456   1.067       .  S
O2455      H2459   0.991       .  S
C2461      C2462   1.396       .  A
C2461      C5046   1.397   1_455  A
C2461      H2471   1.078       .  S
C2462      C2463   1.405   1_455  A
C2462      C2467   1.455       .  S
C2463      C5044   1.384       .  A
C2463      O2468   1.371   1_655  S
C2464      C5043   1.385       .  A
C2464      C2465   1.401       .  A
C2464      H2469   1.084       .  S
C2465      C2466   1.403       .  A
C2466      C5041   1.402       .  A
C2466      O2470   1.369       .  S
C2467      C2472   1.404       .  A
C2467      C2476   1.403       .  A
O2468      H2484   0.989   1_455  S
O2470      H2481   0.989       .  S
C2472      C2473   1.387       .  A
C2472      O2477   1.372       .  S
C2473      C2474   1.401       .  A
C2473      H2478   1.084       .  S
C2474      C2475   1.396       .  A
C2475      C2476   1.390       .  A
C2475      O2479   1.367       .  S
C2476      H2480   1.083       .  S
O2477      H2482   0.991       .  S
O2479      H2483   0.992       .  S
C2485      C2486   1.410       .  A
C2485      C2490   1.400       .  A
C2485      H2495   1.082       .  S
C2486      C2487   1.419       .  A
C2486      C2491   1.496       .  S
C2487      C2488   1.392       .  A
C2487      O2492   1.371       .  S
C2488      C2489   1.397       .  A
C2488      H2493   1.084       .  S
C2489      C2490   1.402       .  A
C2490      O2494   1.372       .  S
C2491      C2496   1.419       .  A
C2491      C2500   1.407       .  A
O2492      H2508   0.990       .  S
O2494      H2505   0.992       .  S
C2496      C2497   1.396       .  A
C2496      O2501   1.372       .  S
C2497      C2498   1.396       .  A
C2497      H2502   1.084       .  S
C2498      C2499   1.405       .  A
C2499      C2500   1.400       .  A
C2499      O2503   1.371       .  S
C2500      H2504   1.082       .  S
O2501      H2506   0.992       .  S
C2509      C2510   1.407       .  A
C2509      C2514   1.397       .  A
C2509      H2519   1.082       .  S
C2510      C2511   1.415       .  A
C2510      C2515   1.472   1_655  S
C2511      C2512   1.380       .  A
C2511      O2516   1.372       .  S
C2512      C2513   1.395       .  A
C2512      H2517   1.083       .  S
C2513      C2514   1.401       .  A
C2513      C4531   1.456       .  S
C2514      O5098   1.370       .  S
C2515      C2520   1.404       .  A
C2515      C2524   1.404       .  A
O2516      H2532   0.992       .  S
O2518      C5094   1.363       .  S
O2518      H2529   0.991       .  S
C2520      C2521   1.396       .  A
C2520      O2525   1.372   1_455  S
C2521      C2522   1.401       .  A
C2521      H2526   1.071       .  S
C2522      C2523   1.400       .  A
C2523      C2524   1.391       .  A
C2523      O2527   1.374       .  S
C2524      H2528   1.083       .  S
O2525      H2530   0.991       .  S
O2527      H2531   0.992       .  S
C2533      C2534   1.410       .  A
C2533      C2538   1.390       .  A
C2533      H2543   1.068       .  S
C2534      C2535   1.404       .  A
C2534      C2539   1.496       .  S
C2535      C2536   1.396       .  A
C2535      O2540   1.372       .  S
C2536      C2537   1.402       .  A
C2536      H2541   1.073       .  S
C2537      C2538   1.404       .  A
C2538      O2542   1.372       .  S
C2539      C2544   1.405       .  A
C2539      C2548   1.409       .  A
O2540      H2556   0.991       .  S
O2542      H2553   0.991       .  S
C2544      C2545   1.387       .  A
C2544      O2549   1.367       .  S
C2545      C2546   1.401       .  A
C2545      H2550   1.079       .  S
C2546      C2547   1.413       .  A
C2547      C2548   1.404       .  A
C2547      O2551   1.372       .  S
C2548      H2552   1.082       .  S
O2549      H2554   0.991       .  S
O2551      H2555   0.990       .  S
C2557      C2558   1.395       .  A
C2557      C2562   1.387       .  A
C2557      H2567   1.079       .  S
C2558      C2559   1.402       .  A
C2558      C2563   1.479       .  S
C2559      C2560   1.405       .  A
C2559      O2564   1.373       .  S
C2560      C2561   1.409       .  A
C2560      H2565   1.068   1_565  S
C2561      C2562   1.422       .  A
C2562      O2566   1.368       .  S
C2563      C2568   1.408       .  A
C2563      C2572   1.403       .  A
O2564      H2580   0.991       .  S
O2566      H2577   0.991       .  S
C2568      C2569   1.392       .  A
C2568      O2573   1.368       .  S
C2569      C2570   1.397       .  A
C2569      H2574   1.085       .  S
C2570      C2571   1.403       .  A
C2571      C2572   1.403       .  A
C2571      O2575   1.367       .  S
C2572      H2576   1.084       .  S
O2573      H2578   0.993       .  S
O2575      H2579   0.987       .  S
N2581      N2588   1.438       .  S
N2581      C3875   1.394   1_545  A
N2581      C3872   1.356   1_545  A
C2582      N3871   1.358       .  A
C2582      C2583   1.389       .  A
C2582      C3206   1.501       .  S
C2583      C2584   1.371       .  A
C2583      H2586   1.082       .  S
C2584      C2585   1.378       .  A
C2584      H2587   1.083       .  S
C2585      N3871   1.398       .  A
C2585      C2764   1.536       .  S
N2588      C2592   1.392       .  A
N2588      C2589   1.355       .  A
C2589      C2590   1.377       .  A
C2589      C3182   1.470       .  S
C2590      C2591   1.352       .  A
C2590      H2593   1.081       .  S
C2591      C2592   1.388       .  A
C2591      H2594   1.083       .  S
C2592      C2650   1.526       .  S
N2595      N2602   1.446       .  S
N2595      C2599   1.393       .  A
N2595      C2596   1.358       .  A
C2596      C2597   1.386       .  A
C2597      C2598   1.374   1_545  A
C2598      C2599   1.380   1_565  A
C2598      H2601   1.083       .  S
C2599      C2766   1.543   1_545  S
N2602      C2606   1.404       .  A
N2602      C2603   1.373       .  A
C2603      C2604   1.361       .  A
C2603      C4433   1.477   1_545  S
C2604      C2605   1.356       .  A
C2604      H2607   1.080   1_554  S
C2605      C2606   1.397       .  A
C2605      H2608   1.083       .  S
C2606      C2644   1.561       .  S
N2609      N2616   1.449       .  S
N2609      C2613   1.405       .  A
N2609      C2610   1.357       .  A
C2610      C2611   1.381       .  A
C2610      C3110   1.462       .  S
C2611      C2612   1.362       .  A
C2611      H2614   1.081   1_554  S
C2612      C2613   1.386       .  A
C2612      H2615   1.084       .  S
C2613      C2649   1.545       .  S
N2616      C2620   1.394       .  A
N2616      C2617   1.350       .  A
C2617      C2618   1.364       .  A
C2617      C3095   1.463       .  S
C2618      C2619   1.372       .  A
C2618      H2621   1.080       .  S
C2619      C2620   1.400       .  A
C2619      H2622   1.084       .  S
C2620      C2749   1.541       .  S
C2623      C2624   1.389       .  A
C2623      C2628   1.399       .  A
C2623      C3215   1.458       .  S
C2624      C2625   1.387       .  A
C2624      C3119   1.449       .  S
C2625      C2626   1.404       .  A
C2625      C3167   1.481       .  S
C2626      C2627   1.416       .  A
C2626      C3191   1.470       .  S
C2627      C2628   1.412       .  A
C2627      C3086   1.472       .  S
C2628      C3134   1.482       .  S
O2629      C2645   1.302       .  A
O2629     Zn2635   2.236       .  S
C2630      C2663   1.563       .  S
C2630      O2646   1.299       .  A
C2630      O2643   1.296       .  A
O2631      C2644   1.283       .  A
O2631     Cd2638   2.092       .  S
O2632      C2650   1.287       .  A
O2632     Cd2641   2.195       .  S
O2633      C2647   1.291       .  A
O2633     Cd2637   2.194       .  S
O2634      C2645   1.291       .  A
O2634     Cd2637   2.134       .  S
Zn2635     O2646   2.161       .  S
Zn2635     O2648   2.234       .  S
Zn2635     O2640   2.067       .  S
O2636      C2647   1.293       .  A
O2636     Cd2641   2.157       .  S
Cd2637     O2639   2.200       .  S
Cd2637     O2640   2.102       .  S
Cd2638     O2642   2.145       .  S
Cd2638     O2651   2.093       .  S
Cd2638     O2640   1.997       .  S
O2639      C2649   1.284       .  A
O2640     Cd2641   2.109       .  S
Cd2641     O2643   2.234       .  S
O2642      C2649   1.287       .  A
C2644      O2648   1.290       .  A
C2645      C2691   1.548       .  S
C2647      C2677   1.541       .  S
C2650      O2651   1.283       .  A
N2652      N2659   1.443       .  S
N2652      C2656   1.397       .  A
N2652      C2653   1.349       .  A
C2653      C2654   1.381       .  A
C2653      C3071   1.469       .  S
C2654      C2655   1.367       .  A
C2654      H2657   1.071       .  S
C2655      C2656   1.386       .  A
C2655      H2658   1.083       .  S
C2656      C2787   1.566       .  S
N2659      C3953   1.392       .  A
N2659      C2660   1.353       .  A
C2660      C3951   1.380       .  A
C2660      C3047   1.472       .  S
C2661      C3950   1.379   1_545  A
C2661      C2662   1.366       .  A
C2661      H2664   1.083       .  S
C2662      C2663   1.379       .  A
C2662      H2665   1.071       .  S
C2663      N3949   1.399   1_545  A
N2666      N2673   1.440       .  S
N2666      C2670   1.386       .  A
N2666      C2667   1.353       .  A
C2667      C2668   1.378       .  A
C2667      C3014   1.469       .  S
C2668      C2669   1.373       .  A
C2668      H2671   1.080       .  S
C2669      C2670   1.384       .  A
C2669      H2672   1.078       .  S
C2670      C2789   1.549       .  S
N2673      C2677   1.386       .  A
N2673      C2674   1.347       .  A
C2674      C2675   1.380       .  A
C2674      C2990   1.469       .  S
C2675      C2676   1.365       .  A
C2675      H2678   1.070       .  S
C2676      C2677   1.383       .  A
C2676      H2679   1.081       .  S
N2680      C2684   1.392       .  A
N2680      C2681   1.360       .  A
C2681      C2682   1.374       .  A
C2681      C2975   1.480       .  S
C2682      C2683   1.357       .  A
C2682      H2685   1.083       .  S
C2683      C2684   1.376       .  A
C2683      H2686   1.085       .  S
C2684      C2772   1.528       .  S
N2687      C2691   1.390       .  A
N2687      C2688   1.354       .  A
C2688      C2689   1.384       .  A
C2688      C2951   1.466       .  S
C2689      C2690   1.371       .  A
C2689      H2692   1.081       .  S
C2690      C2691   1.387       .  A
C2690      H2693   1.079       .  S
C2694      C2699   1.397       .  A
C2694      C2966   1.478       .  S
C2695      C2696   1.396       .  A
C2695      C2999   1.472       .  S
C2696      C2697   1.400       .  A
C2696      C3062   1.461       .  S
C2697      C4232   1.468       .  S
C2698      C2699   1.412       .  A
C2698      C4313   1.466       .  S
C2699      C3038   1.467       .  S
N2700      N2707   1.433       .  S
N2700      C2704   1.378       .  A
N2700      C2701   1.359       .  A
C2701      C2702   1.384       .  A
C2701      C2918   1.483       .  S
C2702      C2703   1.367       .  A
C2702      H2705   1.082       .  S
C2703      C2704   1.383       .  A
C2703      H2706   1.083       .  S
C2704      C2791   1.522       .  S
N2707      C2711   1.382       .  A
N2707      C2708   1.363       .  A
C2708      C2709   1.383       .  A
C2708      C2894   1.483       .  S
C2709      C2710   1.362       .  A
C2709      H2712   1.082       .  S
C2710      C2711   1.382       .  A
C2710      H2713   1.083       .  S
C2711      C2769   1.511       .  S
N2714      N2721   1.430       .  S
N2714      C2718   1.391       .  A
N2714      C2715   1.355       .  A
C2715      C2716   1.376       .  A
C2715      C2879   1.467       .  S
C2716      C2717   1.353       .  A
C2716      H2719   1.082       .  S
C2717      C2718   1.382       .  A
C2717      H2720   1.080       .  S
C2718      C2786   1.525       .  S
N2721      C2725   1.396       .  A
N2721      C2722   1.363       .  A
C2722      C2723   1.377       .  A
C2722      C2846   1.488       .  S
C2723      C2724   1.374       .  A
C2724      C2725   1.389       .  A
C2724      H2727   1.083       .  S
C2725      C2763   1.550       .  S
N2728      N2735   1.432       .  S
N2728      C2732   1.391       .  A
N2728      C2729   1.353       .  A
C2729      C2730   1.371       .  A
C2729      C2831   1.468       .  S
C2730      C2731   1.369       .  A
C2730      H2733   1.073       .  S
C2731      C2732   1.378       .  A
C2731      H2734   1.068       .  S
C2732      C2768   1.552       .  S
N2735      C2739   1.393       .  A
N2735      C2736   1.356       .  A
C2736      C2737   1.371       .  A
C2736      C2807   1.459       .  S
C2737      C2738   1.364       .  A
C2737      H2740   1.082       .  S
C2738      C2739   1.389       .  A
C2738      H2741   1.083       .  S
C2739      C2792   1.529       .  S
C2742      C2743   1.398       .  A
C2742      C2747   1.417       .  A
C2742      C2927   1.488       .  S
C2743      C2744   1.400       .  A
C2743      C2855   1.474       .  S
C2744      C2745   1.400       .  A
C2744      C2798   1.464       .  S
C2745      C2746   1.414       .  A
C2745      C2903   1.487       .  S
C2746      C2747   1.419       .  A
C2746      C2870   1.498       .  S
C2747      C2822   1.461       .  S
O2748      C2764   1.287       .  A
O2748     Zn3399   2.136   1_554  S
C2749      O2765   1.295       .  A
C2749      O2762   1.288       .  A
O2750      C2763   1.284       .  A
O2750     Cd2757   2.120       .  S
O2751      C2769   1.291       .  A
O2751     Cd3405   2.198       .  S
O2752     Cd4046   2.174       .  S
O2753      C2764   1.285       .  A
O2753     Cd2756   2.130   1_554  S
Zn2754     O3393   2.149       .  S
Zn2754     O2767   2.217       .  S
Zn2754     O2759   2.038       .  S
O2755      C4056   1.288       .  A
O2755     Cd2760   2.170   1_554  S
Cd2756     O4042   2.153   1_556  S
Cd2756     O4693   2.164       .  S
Cd2756     O3404   2.062       .  S
Cd2757     O2761   2.119       .  S
Cd2757     O2759   2.032       .  S
O2758      C2768   1.290       .  A
O2758     Cd4691   2.223       .  S
O2759     Cd3401   2.101       .  S
Cd2760     O3396   2.176       .  S
Cd2760     O2762   2.155   1_556  S
O2761      C4058   1.284       .  A
C2763      O2767   1.294       .  A
C2766      O4045   1.294       .  A
C2768      O4051   1.287       .  A
C2769      O2770   1.279       .  A
O2771      C2787   1.293       .  A
O2771     Zn2777   2.125       .  S
C2772      O2788   1.297       .  A
C2772      O2785   1.286       .  A
O2773      C2786   1.280       .  A
O2773     Cd2780   2.076       .  S
O2774      C2792   1.283       .  A
O2774     Cd2783   2.218       .  S
O2775      C2789   1.296       .  A
O2775     Cd2779   2.171       .  S
O2776      C2787   1.298       .  A
O2776     Cd2779   2.256       .  S
Zn2777     O2788   2.179       .  S
Zn2777     O2790   2.155       .  S
Zn2777     O2782   2.041       .  S
O2778      C2789   1.295       .  A
O2778     Cd2783   2.229       .  S
Cd2779     O2781   2.193       .  S
Cd2779     O2782   2.098       .  S
Cd2780     O2784   2.074       .  S
Cd2780     O2793   2.089       .  S
Cd2780     O2782   1.995       .  S
O2781      C2791   1.288       .  A
O2782     Cd2783   2.085       .  S
Cd2783     O2785   2.125       .  S
O2784      C2791   1.277       .  A
C2786      O2790   1.282       .  A
C2792      O2793   1.277       .  A
C2794      C2795   1.407       .  A
C2794      C2799   1.397       .  A
C2794      H2804   1.084       .  S
C2795      C2796   1.421       .  A
C2795      C2800   1.473       .  S
C2796      C2797   1.375       .  A
C2796      O2801   1.372       .  S
C2797      C2798   1.384       .  A
C2797      H2802   1.081       .  S
C2798      C2799   1.404       .  A
C2799      O2803   1.371       .  S
C2800      C2805   1.399       .  A
C2800      C2809   1.407       .  A
O2801      H2817   0.987       .  S
O2803      H2814   0.991       .  S
C2805      O2810   1.367       .  S
C2806      C2807   1.394       .  A
C2806      H2811   1.082       .  S
C2807      C2808   1.405       .  A
C2808      O2812   1.370       .  S
C2809      H2813   1.083       .  S
O2810      H2815   0.991   1_545  S
O2812      H2816   0.990       .  S
C2818      C2819   1.407       .  A
C2818      C2823   1.404       .  A
C2818      H2828   1.084       .  S
C2819      C2820   1.400       .  A
C2819      C2824   1.458       .  S
C2820      C2821   1.376       .  A
C2820      O2825   1.367       .  S
C2821      C2822   1.396       .  A
C2821      H2826   1.084       .  S
C2822      C2823   1.403       .  A
C2823      O2827   1.370       .  S
C2824      C2829   1.408       .  A
C2824      C2833   1.397       .  A
O2825      H2841   0.990       .  S
O2827      H2838   0.991       .  S
C2829      C2830   1.380       .  A
C2829      O2834   1.371       .  S
C2830      C2831   1.399       .  A
C2830      H2835   1.083       .  S
C2831      C2832   1.402       .  A
C2832      C2833   1.396       .  A
C2832      O2836   1.362       .  S
C2833      H2837   1.080       .  S
O2834      H2839   0.991       .  S
O2836      H2840   0.992       .  S
C2842      C2843   1.398       .  A
C2842      H2852   1.082   1_455  S
C2843      C2844   1.415       .  A
C2843      C2848   1.489   1_455  S
C2844      C2845   1.408       .  A
C2844      O2849   1.368       .  S
C2845      H2850   1.082       .  S
C2846      C2847   1.396       .  A
C2847      O2851   1.362       .  S
C2848      C2853   1.406       .  A
C2848      C2857   1.410       .  A
O2849      H2865   0.992       .  S
O2851      H2862   0.986       .  S
C2853      C2854   1.388       .  A
C2853      O2858   1.356       .  S
C2854      C2855   1.387       .  A
C2854      H2859   1.083       .  S
C2855      C2856   1.403       .  A
C2856      C2857   1.399       .  A
C2856      O2860   1.371       .  S
C2857      H2861   1.082       .  S
O2858      H2863   0.987       .  S
O2860      H2864   0.992       .  S
C2866      C2867   1.399       .  A
C2866      C2871   1.395       .  A
C2866      H2876   1.083       .  S
C2867      C2868   1.411       .  A
C2867      C4162   1.477   1_545  S
C2868      C2869   1.392       .  A
C2868      O4163   1.367       .  S
C2869      C2870   1.403       .  A
C2869      H2874   1.085       .  S
C2870      C2871   1.409       .  A
C2871      O2875   1.358       .  S
C2872      C2877   1.407       .  A
C2872      C2881   1.405       .  A
C2872      C4157   1.475       .  S
O2873      C4158   1.369       .  S
O2873      H2889   0.991       .  S
O2875      H2886   0.991       .  S
C2877      C2878   1.387       .  A
C2877      O2882   1.370       .  S
C2878      C2879   1.395       .  A
C2878      H2883   1.085       .  S
C2879      C2880   1.410       .  A
C2880      C2881   1.398       .  A
C2880      O2884   1.371       .  S
C2881      H2885   1.083       .  S
O2882      H2887   0.993       .  S
O2884      H2888   0.991       .  S
C2890      C2891   1.407       .  A
C2890      C4185   1.398       .  A
C2890      H2900   1.075       .  S
C2891      C4182   1.401       .  A
C2891      C2896   1.496       .  S
C2892      C4181   1.397       .  A
C2892      C2893   1.390       .  A
C2892      O2897   1.368       .  S
C2893      C2894   1.403       .  A
C2893      H2898   1.077       .  S
C2894      C2895   1.411       .  A
C2895      C4180   1.398       .  A
C2895      O2899   1.372       .  S
C2896      C2901   1.418       .  A
C2896      C2905   1.408       .  A
O2897      H2913   0.991       .  S
O2899      H2910   0.991       .  S
C2901      C2902   1.391   1_565  A
C2901      O2906   1.369       .  S
C2902      C2903   1.395       .  A
C2902      H2907   1.081       .  S
C2903      C2904   1.404       .  A
C2904      C2905   1.402   1_545  A
C2904      O2908   1.372       .  S
C2905      H2909   1.077       .  S
O2906      H2911   0.992       .  S
O2908      H2912   0.992       .  S
C2914      C2915   1.402       .  A
C2914      C2919   1.396       .  A
C2914      H2924   1.070       .  S
C2915      C2916   1.411       .  A
C2915      C2920   1.492       .  S
C2916      C2917   1.396       .  A
C2916      O2921   1.366       .  S
C2917      C2918   1.405       .  A
C2917      H2922   1.084       .  S
C2918      C2919   1.402       .  A
C2919      O2923   1.365       .  S
C2920      C2925   1.410       .  A
C2920      C2929   1.404       .  A
O2921      H2937   0.984       .  S
O2923      H2934   0.993       .  S
C2925      C2926   1.399       .  A
C2925      O2930   1.370       .  S
C2926      C2927   1.406       .  A
C2926      H2931   1.082       .  S
C2927      C2928   1.390       .  A
C2928      C2929   1.394       .  A
C2928      O2932   1.368       .  S
C2929      H2933   1.076       .  S
O2930      H2935   0.990       .  S
O2932      H2936   0.990       .  S
C2938      C2939   1.392       .  A
C2938      C2943   1.385       .  A
C2938      H2948   1.084       .  S
C2939      C2940   1.413       .  A
C2939      C2944   1.450       .  S
C2941      H2946   1.082       .  S
C2942      C2943   1.413       .  A
C2942      C3987   1.458       .  S
C2943      O4237   1.372   1_545  S
C2944      C2949   1.398       .  A
C2944      C2953   1.398       .  A
O2945      H2961   0.990       .  S
O2947      C4233   1.372       .  S
O2947      H2958   0.992       .  S
C2949      C2950   1.391       .  A
C2949      O2954   1.370       .  S
C2950      C2951   1.416       .  A
C2950      H2955   1.083       .  S
C2951      C2952   1.402       .  A
C2952      C2953   1.388       .  A
O2954      H2959   0.992       .  S
O2956      H2960   0.992       .  S
C2962      C2963   1.413       .  A
C2962      C2967   1.395       .  A
C2962      H2972   1.084       .  S
C2963      C2968   1.488       .  S
C2964      C2965   1.397       .  A
C2964      O2969   1.364   1_455  S
C2965      H2970   1.083   1_455  S
C2966      C2967   1.399       .  A
C2967      O2971   1.371       .  S
C2968      C2973   1.412       .  A
C2968      C2977   1.407       .  A
O2969      H2985   0.992   1_655  S
O2971      H2982   0.991       .  S
C2973      C2974   1.396       .  A
C2973      O2978   1.370       .  S
C2974      C2975   1.407       .  A
C2974      H2979   1.084       .  S
C2975      C2976   1.409       .  A
C2976      C2977   1.388       .  A
O2978      H2983   0.991       .  S
O2980      H2984   0.992       .  S
C2986      C2987   1.393       .  A
C2986      C2991   1.395       .  A
C2986      H2996   1.079       .  S
C2987      C2988   1.407       .  A
C2987      C2992   1.463       .  S
C2988      C2989   1.396       .  A
C2988      O2993   1.371       .  S
C2989      C2990   1.401       .  A
C2989      H2994   1.081       .  S
C2990      C2991   1.415       .  A
C2991      O2995   1.374       .  S
C2992      C2997   1.400       .  A
C2992      C3001   1.404       .  A
O2993      H3009   0.991       .  S
O2995      H3006   0.992       .  S
C2997      C2998   1.393       .  A
C2997      O3002   1.372       .  S
C2998      C2999   1.406       .  A
C2998      H3003   1.081       .  S
C2999      C3000   1.403       .  A
C3000      C3001   1.396       .  A
C3000      O3004   1.370       .  S
C3001      H3005   1.084       .  S
O3002      H3007   0.991       .  S
O3004      H3008   0.991       .  S
C3010      C3011   1.402       .  A
C3010      C3015   1.392       .  A
C3010      H3020   1.084       .  S
C3011      C3012   1.399       .  A
C3011      C3016   1.464       .  S
C3012      C3013   1.396       .  A
C3012      O3017   1.370       .  S
C3013      C3014   1.410       .  A
C3013      H3018   1.084       .  S
C3014      C3015   1.408       .  A
C3015      O3019   1.377       .  S
C3016      C3021   1.399       .  A
C3016      C3025   1.397       .  A
O3017      H3033   0.991       .  S
O3019      H3030   0.990       .  S
C3021      C3022   1.392       .  A
C3021      O3026   1.369       .  S
C3022      C3023   1.411       .  A
C3022      H3027   1.082       .  S
C3023      C3024   1.411       .  A
C3023      C3988   1.493       .  S
C3024      C3025   1.399       .  A
C3024      O3028   1.374       .  S
C3025      H3029   1.084       .  S
O3026      H3031   0.992       .  S
O3028      H3032   0.993       .  S
C3034      C3035   1.398       .  A
C3034      C3039   1.392       .  A
C3034      H4334   1.083       .  S
C3035      C3036   1.411       .  A
C3035      C3040   1.471       .  S
C3036      C3037   1.393       .  A
C3036      O3041   1.374       .  S
C3037      C3038   1.399       .  A
C3037      H3042   1.081       .  S
C3038      C3039   1.407       .  A
C3039      O4333   1.370       .  S
C3040      C3045   1.402       .  A
C3040      C3049   1.406       .  A
O3041      H3057   0.992       .  S
O3043      C4329   1.374       .  S
O3043      H3054   0.992       .  S
H3044      C4324   1.084       .  S
C3045      C3046   1.387       .  A
C3045      O4340   1.373       .  S
C3046      C3047   1.407       .  A
C3046      H4341   1.083       .  S
C3047      C3048   1.404       .  A
C3048      C3049   1.403       .  A
C3048      O3052   1.374       .  S
C3049      H3053   1.082       .  S
O3050      C4335   1.374       .  S
O3050      H3055   0.992       .  S
H3051      C4336   1.084       .  S
O3052      H3056   0.992       .  S
C3058      C3059   1.410       .  A
C3058      C3063   1.392       .  A
C3058      H3068   1.084       .  S
C3059      C3060   1.404       .  A
C3059      C3064   1.470       .  S
C3060      C3061   1.391       .  A
C3060      O3065   1.369       .  S
C3061      C3062   1.403       .  A
C3061      H3066   1.084       .  S
C3062      C3063   1.396       .  A
C3063      O3067   1.372       .  S
C3064      C3069   1.400       .  A
C3064      C3073   1.406       .  A
O3065      H3081   0.990       .  S
O3067      H3078   0.992       .  S
C3069      C3070   1.384       .  A
C3069      O3074   1.368       .  S
C3070      C3071   1.403       .  A
C3070      H3075   1.084       .  S
C3071      C3072   1.403       .  A
C3072      C3073   1.399       .  A
C3072      O3076   1.368       .  S
C3073      H3077   1.084       .  S
O3074      H3079   0.991       .  S
O3076      H3080   0.990       .  S
C3082      C3083   1.408       .  A
C3082      C3087   1.398       .  A
C3082      H3092   1.080   1_554  S
C3083      C3084   1.400       .  A
C3083      C3088   1.517       .  S
C3084      C3085   1.394       .  A
C3084      O3089   1.369       .  S
C3085      C3086   1.407       .  A
C3085      H3090   1.073       .  S
C3086      C3087   1.412       .  A
C3087      O3091   1.375   1_554  S
C3088      C3093   1.421       .  A
C3088      C3097   1.424       .  A
O3089      H3105   0.991       .  S
O3091      H3102   0.992       .  S
C3093      C3094   1.395       .  A
C3093      O3098   1.368   1_554  S
C3094      C3095   1.399       .  A
C3094      H3099   1.084       .  S
C3095      C3096   1.392       .  A
C3096      C3097   1.393       .  A
C3096      O3100   1.373       .  S
C3097      H3101   1.072       .  S
O3098      H3748   0.992       .  S
O3100      H3104   0.991       .  S
H3103      O3743   0.992       .  S
C3106      C3107   1.392       .  A
C3106      H3116   1.084       .  S
C3107      C3108   1.405   1_556  A
C3107      C3112   1.451   1_556  S
C3108      O3113   1.372       .  S
C3109      C3110   1.410       .  A
C3109      H3114   1.081       .  S
C3110      C3111   1.394   1_554  A
C3111      O3115   1.370       .  S
C3112      C3117   1.400   1_554  A
C3112      C3121   1.408       .  A
O3113      H3129   0.988       .  S
O3115      H3126   0.989       .  S
C3117      C3118   1.381   1_556  A
C3117      O3122   1.370       .  S
C3118      C3119   1.402       .  A
C3118      H3123   1.085       .  S
C3119      C3120   1.399       .  A
C3120      C3121   1.393       .  A
C3120      O3124   1.372       .  S
C3121      H3125   1.084       .  S
O3122      H3127   0.991       .  S
O3124      H3128   0.992       .  S
C3130      C3131   1.410       .  A
C3130      C3135   1.401       .  A
C3130      H3140   1.083       .  S
C3131      C3132   1.415       .  A
C3131      C3136   1.499       .  S
C3132      C3133   1.395       .  A
C3132      O3137   1.368   1_554  S
C3133      C3134   1.399       .  A
C3133      H3138   1.084   1_554  S
C3134      C3135   1.402       .  A
C3135      O3139   1.371       .  S
C3136      C3141   1.416       .  A
C3136      C3145   1.410       .  A
O3137      H3153   0.990       .  S
O3139      H3150   0.990       .  S
C3141      C3142   1.396       .  A
C3141      O3146   1.371       .  S
C3142      C3143   1.398       .  A
C3142      H3147   1.084       .  S
C3143      C3144   1.408       .  A
C3143      C3893   1.480       .  S
C3144      C3145   1.405       .  A
C3144      O3148   1.371   1_554  S
C3145      H3149   1.082   1_554  S
O3146      H3151   0.991       .  S
O3148      H4442   0.990       .  S
H3152      O4438   0.992       .  S
C3154      C3155   1.407       .  A
C3154      C3159   1.397       .  A
C3154      H3164   1.084       .  S
C3155      C3156   1.414       .  A
C3155      C3160   1.475       .  S
C3156      C3157   1.381       .  A
C3156      O3161   1.371       .  S
C3157      C3158   1.392       .  A
C3157      H3162   1.078       .  S
C3158      C3159   1.405       .  A
C3160      C3165   1.407       .  A
C3160      C3169   1.400       .  A
O3161      H3177   0.992       .  S
O3163      H3174   0.992       .  S
C3165      C3166   1.399       .  A
C3165      O3170   1.372       .  S
C3166      C3167   1.405       .  A
C3166      H3171   1.074       .  S
C3167      C3168   1.399       .  A
C3168      C3169   1.391       .  A
C3168      O3172   1.374       .  S
C3169      H3173   1.083       .  S
O3170      H3175   0.991       .  S
O3172      H3176   0.992       .  S
C3178      C3179   1.403       .  A
C3178      C3183   1.376       .  A
C3178      H3188   1.078       .  S
C3179      C3180   1.406       .  A
C3179      C3184   1.473       .  S
C3180      C3181   1.399       .  A
C3180      O3185   1.374       .  S
C3181      C3182   1.411       .  A
C3181      H3186   1.082       .  S
C3182      C3183   1.400       .  A
C3183      O3187   1.370   1_554  S
C3184      C3189   1.409       .  A
C3184      C3193   1.407       .  A
O3185      H3201   0.991       .  S
O3187      H3198   0.991       .  S
C3189      C3190   1.380       .  A
C3189      O3194   1.366       .  S
C3190      C3191   1.390       .  A
C3190      H3195   1.080       .  S
C3191      C3192   1.402       .  A
C3192      C3193   1.397       .  A
C3192      O3196   1.372       .  S
C3193      H3197   1.080       .  S
O3194      H3199   0.992       .  S
O3196      H3200   0.992       .  S
C3202      C3203   1.396       .  A
C3202      C3207   1.385       .  A
C3202      H3212   1.082       .  S
C3203      C3204   1.399       .  A
C3203      C3208   1.470       .  S
C3204      C3205   1.396       .  A
C3204      O3209   1.373       .  S
C3205      C3206   1.410       .  A
C3205      H3210   1.065       .  S
C3206      C3207   1.422       .  A
C3207      O3211   1.370       .  S
C3208      C3213   1.406       .  A
C3208      C3217   1.405       .  A
O3209      H3225   0.990       .  S
O3211      H3222   0.992       .  S
C3213      C3214   1.382       .  A
C3213      O3218   1.366       .  S
C3214      C3215   1.392       .  A
C3214      H3219   1.085       .  S
C3215      C3216   1.399       .  A
C3216      C3217   1.399       .  A
C3216      O3220   1.370       .  S
C3217      H3221   1.084       .  S
O3218      H3223   0.993       .  S
O3220      H3224   0.989   1_554  S
N3226      N3233   1.449       .  S
N3226      C4520   1.400       .  A
N3226      C4517   1.368       .  A
C3227      N4516   1.373       .  A
C3227      C3228   1.391       .  A
C3227      C3851   1.513       .  S
C3228      C3229   1.360       .  A
C3228      H3231   1.079       .  S
C3229      C3230   1.374       .  A
C3229      H3232   1.082       .  S
C3230      N4516   1.414       .  A
C3230      C3409   1.558       .  S
N3233      C3237   1.407       .  A
N3233      C3234   1.376       .  A
C3234      C3235   1.371       .  A
C3234      C3827   1.481       .  S
C3235      C3236   1.349       .  A
C3235      H3238   1.079       .  S
C3236      C3237   1.387       .  A
C3236      H3239   1.084       .  S
C3237      C3295   1.533       .  S
N3240      N3247   1.447       .  S
N3240      C3244   1.404       .  A
N3240      C3241   1.354       .  A
C3241      C3242   1.379       .  A
C3242      C3243   1.360       .  A
C3243      C3244   1.380       .  A
C3243      H3246   1.083   1_545  S
C3244      C3411   1.531   1_545  S
N3247      C3251   1.419       .  A
N3247      C3248   1.367   1_545  A
C3248      C3249   1.366   1_565  A
C3248      C5078   1.464       .  S
C3249      C3250   1.351       .  A
C3249      H3252   1.076   1_545  S
C3250      C3251   1.386       .  A
C3250      H3253   1.084       .  S
C3251      C3289   1.552       .  S
N3254      N3261   1.434       .  S
N3254      C3258   1.392       .  A
N3254      C3255   1.349       .  A
C3255      C3256   1.381       .  A
C3255      C3755   1.462       .  S
C3256      C3257   1.370       .  A
C3256      H3259   1.076       .  S
C3257      C3258   1.379       .  A
C3257      H3260   1.082       .  S
C3258      C3294   1.533       .  S
N3261      C3265   1.394       .  A
N3261      C3262   1.356       .  A
C3262      C3263   1.375       .  A
C3262      C3740   1.471       .  S
C3263      C3264   1.376       .  A
C3263      H3266   1.082       .  S
C3264      C3265   1.387       .  A
C3264      H3267   1.083       .  S
C3265      C3394   1.530       .  S
C3268      C3269   1.399       .  A
C3268      C3273   1.415       .  A
C3268      C3860   1.491       .  S
C3269      C3270   1.396       .  A
C3269      C3764   1.459       .  S
C3270      C3271   1.402       .  A
C3270      C3812   1.475       .  S
C3271      C3272   1.404       .  A
C3271      C3836   1.482       .  S
C3272      C3273   1.414       .  A
C3272      C3731   1.473       .  S
C3273      C3779   1.470       .  S
O3274      C3290   1.300       .  A
O3274     Zn3280   2.241       .  S
C3275      C3308   1.539       .  S
C3275      O3291   1.288       .  A
C3275      O3288   1.295       .  A
O3276      C3289   1.292       .  A
O3276     Cd3283   2.148       .  S
O3277      C3295   1.287       .  A
O3277     Cd3286   2.201       .  S
O3278      C3292   1.285       .  A
O3278     Cd3282   2.159       .  S
O3279      C3290   1.287       .  A
O3279     Cd3282   2.121       .  S
Zn3280     O3291   2.090       .  S
Zn3280     O3293   2.171       .  S
Zn3280     O3285   2.047       .  S
O3281      C3292   1.294       .  A
O3281     Cd3286   2.173       .  S
Cd3282     O3284   2.155       .  S
Cd3282     O3285   2.078       .  S
Cd3283     O3287   2.167       .  S
Cd3283     O3296   2.126       .  S
Cd3283     O3285   2.013       .  S
O3284      C3294   1.279       .  A
O3285     Cd3286   2.097       .  S
Cd3286     O3288   2.213       .  S
O3287      C3294   1.292       .  A
C3289      O3293   1.287       .  A
C3290      C3336   1.550       .  S
C3292      C3322   1.531       .  S
C3295      O3296   1.288       .  A
N3297      N3304   1.449       .  S
N3297      C3301   1.396       .  A
N3297      C3298   1.350       .  A
C3298      C3299   1.378       .  A
C3298      C3716   1.457       .  S
C3299      C3300   1.362       .  A
C3299      H3302   1.081       .  S
C3300      C3301   1.384       .  A
C3300      H3303   1.084       .  S
C3301      C3432   1.548       .  S
N3304      C4598   1.398       .  A
N3304      C3305   1.349       .  A
C3305      C4596   1.381       .  A
C3305      C3692   1.466       .  S
C3306      C4595   1.379   1_545  A
C3306      C3307   1.372       .  A
C3306      H3309   1.079       .  S
C3307      C3308   1.382       .  A
C3307      H3310   1.077       .  S
C3308      N4594   1.381   1_545  A
N3311      N3318   1.444       .  S
N3311      C3315   1.390       .  A
N3311      C3312   1.356       .  A
C3312      C3313   1.382       .  A
C3312      C3659   1.484       .  S
C3313      C3314   1.370       .  A
C3313      H3316   1.079       .  S
C3314      C3315   1.382       .  A
C3314      H3317   1.083       .  S
C3315      C3434   1.539       .  S
N3318      C3322   1.389       .  A
N3318      C3319   1.355       .  A
C3319      C3320   1.375       .  A
C3319      C3635   1.478       .  S
C3320      C3321   1.369       .  A
C3320      H3323   1.082       .  S
C3321      C3322   1.377       .  A
C3321      H3324   1.084       .  S
N3325      C3329   1.397       .  A
N3325      C3326   1.359       .  A
C3326      C3327   1.367       .  A
C3326      C3620   1.472       .  S
C3327      C3328   1.356       .  A
C3327      H3330   1.083       .  S
C3328      C3329   1.383       .  A
C3328      H3331   1.086       .  S
C3329      C3417   1.530       .  S
N3332      C3336   1.395       .  A
N3332      C3333   1.358       .  A
C3333      C3334   1.385       .  A
C3333      C3596   1.483       .  S
C3334      C3335   1.359       .  A
C3334      H3337   1.080       .  S
C3335      C3336   1.377       .  A
C3335      H3338   1.069       .  S
C3339      C3344   1.394       .  A
C3339      C3611   1.470       .  S
C3340      C3341   1.402       .  A
C3340      C3644   1.481   1_455  S
C3341      C3342   1.396       .  A
C3341      C3707   1.463   1_455  S
C3342      C4877   1.458       .  S
C3343      C3344   1.405       .  A
C3343      C4958   1.465       .  S
C3344      C3683   1.463       .  S
N3345      N3352   1.429       .  S
N3345      C3349   1.388       .  A
N3345      C3346   1.351       .  A
C3346      C3347   1.380       .  A
C3346      C3563   1.476       .  S
C3347      C3348   1.368       .  A
C3347      H3350   1.080       .  S
C3348      C3349   1.384       .  A
C3348      H3351   1.083       .  S
C3349      C3436   1.522       .  S
N3352      C3356   1.384       .  A
N3352      C3353   1.356       .  A
C3353      C3354   1.386       .  A
C3353      C3539   1.475       .  S
C3354      C3355   1.367       .  A
C3354      H3357   1.082       .  S
C3355      C3356   1.380       .  A
C3355      H3358   1.083       .  S
C3356      C3414   1.514       .  S
N3359      N3366   1.440       .  S
N3359      C3363   1.400       .  A
N3359      C3360   1.358       .  A
C3360      C3361   1.369       .  A
C3360      C3524   1.457       .  S
C3361      C3362   1.352       .  A
C3361      H3364   1.079       .  S
C3362      C3363   1.383       .  A
C3362      H3365   1.083       .  S
C3363      C3431   1.534       .  S
N3366      C3370   1.407       .  A
N3366      C3367   1.360       .  A
C3367      C3368   1.375       .  A
C3367      C3491   1.480       .  S
C3368      C3369   1.375       .  A
C3369      C3370   1.393       .  A
C3369      H3372   1.083       .  S
C3370      C3408   1.565       .  S
N3373      N3380   1.440       .  S
N3373      C3377   1.397       .  A
N3373      C3374   1.359       .  A
C3374      C3375   1.377       .  A
C3374      C3476   1.462       .  S
C3375      C3376   1.368       .  A
C3375      H3378   1.081       .  S
C3376      C3377   1.386       .  A
C3376      H3379   1.083       .  S
C3377      C3413   1.547       .  S
N3380      C3384   1.391       .  A
N3380      C3381   1.344       .  A
C3381      C3382   1.364       .  A
C3381      C3452   1.467       .  S
C3382      C3383   1.379       .  A
C3382      H3385   1.077       .  S
C3383      C3384   1.397       .  A
C3383      H3386   1.083       .  S
C3384      C3437   1.553       .  S
C3387      C3388   1.411       .  A
C3387      C3392   1.400       .  A
C3387      C3572   1.464       .  S
C3388      C3389   1.405       .  A
C3388      C3500   1.477       .  S
C3389      C3390   1.408       .  A
C3389      C3443   1.485       .  S
C3390      C3391   1.415       .  A
C3390      C3548   1.483       .  S
C3391      C3392   1.398       .  A
C3391      C3515   1.485       .  S
C3392      C3467   1.473       .  S
O3393      C3409   1.294       .  A
C3394      O3410   1.291       .  A
C3394      O3407   1.289       .  A
O3395      C3408   1.293       .  A
O3395     Cd3402   2.171       .  S
O3396      C3414   1.287       .  A
O3397     Cd4691   2.204       .  S
O3398      C3409   1.289       .  A
O3398     Cd3401   2.184       .  S
Zn3399     O3412   2.187       .  S
Zn3399     O3404   2.047       .  S
O3400      C4701   1.287       .  A
O3400     Cd3405   2.181       .  S
Cd3401     O4687   2.188       .  S
Cd3401     O4048   2.230       .  S
Cd3402     O3406   2.206       .  S
Cd3402     O3404   2.041       .  S
O3403      C3413   1.289       .  A
O3403     Cd4046   2.213   1_556  S
Cd3405     O3407   2.172       .  S
O3406      C4703   1.294       .  A
C3408      O3412   1.288       .  A
C3411      O4690   1.286       .  A
C3413      O4696   1.283       .  A
C3414      O3415   1.279       .  A
O3416      C3432   1.288       .  A
O3416     Zn3422   2.107       .  S
C3417      O3433   1.297       .  A
C3417      O3430   1.289       .  A
O3418      C3431   1.285       .  A
O3418     Cd3425   2.104       .  S
O3419      C3437   1.277       .  A
O3419     Cd3428   2.185       .  S
O3420      C3434   1.295       .  A
O3420     Cd3424   2.183       .  S
O3421      C3432   1.293       .  A
O3421     Cd3424   2.226       .  S
Zn3422     O3433   2.179       .  S
Zn3422     O3435   2.154       .  S
Zn3422     O3427   2.049       .  S
O3423      C3434   1.290       .  A
O3423     Cd3428   2.184       .  S
Cd3424     O3426   2.178       .  S
Cd3424     O3427   2.097       .  S
Cd3425     O3429   2.112       .  S
Cd3425     O3438   2.166       .  S
Cd3425     O3427   2.018       .  S
O3426      C3436   1.288       .  A
O3427     Cd3428   2.080       .  S
Cd3428     O3430   2.149       .  S
O3429      C3436   1.285       .  A
C3431      O3435   1.280       .  A
C3437      O3438   1.289       .  A
C3439      C3440   1.408       .  A
C3439      C3444   1.404       .  A
C3439      H3449   1.083       .  S
C3440      C3441   1.405       .  A
C3440      C3445   1.473       .  S
C3441      C3442   1.388       .  A
C3441      O3446   1.371       .  S
C3442      C3443   1.396       .  A
C3442      H3447   1.080       .  S
C3443      C3444   1.404       .  A
C3444      O3448   1.370       .  S
C3445      C3450   1.414       .  A
C3445      C3454   1.400       .  A
O3446      H3462   0.992       .  S
O3448      H3459   0.992       .  S
C3450      O3455   1.367       .  S
C3451      C3452   1.398       .  A
C3451      H3456   1.065       .  S
C3452      C3453   1.407       .  A
C3453      O3457   1.375       .  S
C3454      H3458   1.084       .  S
O3455      H3460   0.992       .  S
O3457      H3461   0.992       .  S
C3463      C3464   1.410       .  A
C3463      C3468   1.406       .  A
C3463      H3473   1.083       .  S
C3464      C3465   1.397       .  A
C3464      C3469   1.479       .  S
C3465      C3466   1.391       .  A
C3465      O3470   1.364       .  S
C3466      C3467   1.396       .  A
C3466      H3471   1.083       .  S
C3467      C3468   1.408       .  A
C3468      O3472   1.368       .  S
C3469      C3474   1.416       .  A
C3469      C3478   1.406       .  A
O3470      H3486   0.991       .  S
O3472      H3483   0.992       .  S
C3474      C3475   1.385       .  A
C3474      O3479   1.374       .  S
C3475      C3476   1.394       .  A
C3475      H3480   1.085       .  S
C3476      C3477   1.394       .  A
C3477      C3478   1.407       .  A
C3477      O3481   1.374       .  S
C3478      H3482   1.081       .  S
O3479      H3484   0.991       .  S
O3481      H3485   0.991       .  S
C3487      C3488   1.408       .  A
C3487      H3497   1.081       .  S
C3488      C3489   1.421   1_655  A
C3488      C3493   1.502       .  S
C3489      C3490   1.404       .  A
C3489      O3494   1.369       .  S
C3490      H3495   1.078       .  S
C3491      C3492   1.398       .  A
C3492      O3496   1.367       .  S
C3493      C3498   1.409       .  A
C3493      C3502   1.405       .  A
O3494      H3510   0.992       .  S
O3496      H3507   0.991       .  S
C3498      C3499   1.398       .  A
C3498      O3503   1.355       .  S
C3499      C3500   1.394       .  A
C3499      H3504   1.083       .  S
C3500      C3501   1.400       .  A
C3501      C3502   1.391       .  A
C3501      O3505   1.373       .  S
C3502      H3506   1.071       .  S
O3503      H3508   0.990       .  S
O3505      H3509   0.991       .  S
C3511      C3512   1.400       .  A
C3511      C3516   1.393       .  A
C3511      H3521   1.085       .  S
C3512      C3513   1.418       .  A
C3512      C4807   1.475       .  S
C3513      C3514   1.392       .  A
C3513      O4808   1.374       .  S
C3514      C3515   1.398       .  A
C3514      H3519   1.085       .  S
C3515      C3516   1.406       .  A
C3516      O3520   1.361       .  S
C3517      C3522   1.396       .  A
C3517      C3526   1.400       .  A
C3517      C4802   1.456       .  S
O3518      C4803   1.374   1_554  S
O3518      H3534   0.991       .  S
O3520      H3531   0.992       .  S
C3522      C3523   1.395       .  A
C3522      O3527   1.369   1_556  S
C3523      C3524   1.409       .  A
C3523      H3528   1.084   1_556  S
C3524      C3525   1.404       .  A
C3525      C3526   1.371       .  A
C3525      O3529   1.371       .  S
C3526      H3530   1.082       .  S
O3527      H3532   0.990       .  S
O3529      H3533   0.991       .  S
C3535      C3536   1.413       .  A
C3535      C4830   1.403       .  A
C3535      H3545   1.076       .  S
C3536      C4827   1.400       .  A
C3536      C3541   1.499       .  S
C3537      C4826   1.396       .  A
C3537      C3538   1.387       .  A
C3537      O3542   1.369       .  S
C3538      C3539   1.405       .  A
C3538      H3543   1.077       .  S
C3539      C3540   1.410       .  A
C3540      C4825   1.395       .  A
C3540      O3544   1.374       .  S
C3541      C3546   1.421       .  A
C3541      C3550   1.404       .  A
O3542      H3558   0.991       .  S
O3544      H3555   0.992       .  S
C3546      C3547   1.392   1_565  A
C3546      O3551   1.368       .  S
C3547      C3548   1.396       .  A
C3547      H3552   1.083       .  S
C3548      C3549   1.402       .  A
C3549      C3550   1.398   1_545  A
C3549      O3553   1.371       .  S
C3550      H3554   1.074       .  S
O3551      H3556   0.990       .  S
O3553      H3557   0.992       .  S
C3559      C3560   1.406       .  A
C3559      C3564   1.395       .  A
C3559      H3569   1.081       .  S
C3560      C3561   1.403       .  A
C3560      C3565   1.473       .  S
C3561      C3562   1.393       .  A
C3561      O3566   1.368       .  S
C3562      C3563   1.403       .  A
C3562      H3567   1.083       .  S
C3563      C3564   1.401       .  A
C3564      O3568   1.370       .  S
C3565      C3570   1.407       .  A
C3565      C3574   1.406       .  A
O3566      H3582   0.990       .  S
O3568      H3579   0.992       .  S
C3570      C3571   1.401       .  A
C3570      O3575   1.371       .  S
C3571      C3572   1.404       .  A
C3571      H3576   1.082       .  S
C3572      C3573   1.400       .  A
C3573      C3574   1.380       .  A
C3573      O3577   1.377       .  S
C3574      H3578   1.083       .  S
O3575      H3580   0.991       .  S
O3577      H3581   0.991       .  S
C3583      C3584   1.398       .  A
C3583      C3588   1.397       .  A
C3583      H3593   1.083       .  S
C3584      C3585   1.407       .  A
C3584      C3589   1.462       .  S
C3586      H3591   1.083       .  S
C3587      C3588   1.406       .  A
C3587      C4632   1.475   1_545  S
C3588      O4882   1.372   1_545  S
C3589      C3594   1.402       .  A
C3589      C3598   1.397       .  A
O3590      H3606   0.990       .  S
O3592      C4878   1.372       .  S
O3592      H3603   0.992   1_655  S
C3594      C3595   1.393       .  A
C3594      O3599   1.370       .  S
C3595      C3596   1.414       .  A
C3595      H3600   1.083       .  S
C3596      C3597   1.403   1_655  A
C3597      C3598   1.390   1_455  A
O3599      H3604   0.990       .  S
O3601      H3605   0.991       .  S
C3607      C3608   1.405       .  A
C3607      C3612   1.388       .  A
C3607      H3617   1.084       .  S
C3608      C3613   1.473       .  S
C3609      C3610   1.394       .  A
C3609      O3614   1.371       .  S
C3610      H3615   1.084       .  S
C3611      C3612   1.401       .  A
C3612      O3616   1.370       .  S
C3613      C3618   1.405       .  A
C3613      C3622   1.405       .  A
O3614      H3630   0.991       .  S
O3616      H3627   0.991       .  S
C3618      C3619   1.394       .  A
C3618      O3623   1.371       .  S
C3619      C3620   1.408       .  A
C3619      H3624   1.082       .  S
C3620      C3621   1.407       .  A
C3621      C3622   1.388       .  A
O3623      H3628   0.992       .  S
O3625      H3629   0.992       .  S
C3631      C3632   1.391       .  A
C3631      C3636   1.395       .  A
C3631      H3641   1.082       .  S
C3632      C3633   1.407       .  A
C3632      C3637   1.464       .  S
C3633      C3634   1.396       .  A
C3633      O3638   1.371       .  S
C3634      C3635   1.398       .  A
C3634      H3639   1.078       .  S
C3635      C3636   1.415       .  A
C3636      O3640   1.369       .  S
C3637      C3642   1.406       .  A
C3637      C3646   1.396       .  A
O3638      H3654   0.991       .  S
O3640      H3651   0.991       .  S
C3642      C3643   1.395       .  A
C3642      O3647   1.370       .  S
C3643      C3644   1.401       .  A
C3643      H3648   1.083   1_655  S
C3644      C3645   1.407       .  A
C3645      C3646   1.394       .  A
C3645      O3649   1.371       .  S
C3646      H3650   1.082       .  S
O3647      H3652   0.991       .  S
O3649      H3653   0.989       .  S
C3655      C3656   1.401       .  A
C3655      C3660   1.394       .  A
C3655      H3665   1.084       .  S
C3656      C3657   1.403       .  A
C3656      C3661   1.472       .  S
C3657      C3658   1.396       .  A
C3657      O3662   1.371       .  S
C3658      C3659   1.411       .  A
C3658      H3663   1.084       .  S
C3659      C3660   1.404       .  A
C3660      O3664   1.366       .  S
C3661      C3666   1.401       .  A
C3661      C3670   1.400       .  A
O3662      H3678   0.991       .  S
O3664      H3675   0.992       .  S
C3666      C3667   1.393       .  A
C3666      O3671   1.369       .  S
C3667      C3668   1.406       .  A
C3667      H3672   1.085       .  S
C3668      C3669   1.400       .  A
C3668      C4633   1.475   1_545  S
C3669      C3670   1.395       .  A
C3669      O3673   1.366       .  S
C3670      H3674   1.072       .  S
O3671      H3676   0.992       .  S
O3673      H3677   0.990       .  S
C3679      C3680   1.391       .  A
C3679      C3684   1.385       .  A
C3679      H4979   1.078       .  S
C3680      C3681   1.406       .  A
C3680      C3685   1.458       .  S
C3681      C3682   1.396       .  A
C3681      O3686   1.370       .  S
C3682      C3683   1.401       .  A
C3682      H3687   1.084       .  S
C3683      C3684   1.406       .  A
C3684      O4978   1.372       .  S
C3685      C3690   1.397       .  A
C3685      C3694   1.404       .  A
O3686      H3702   0.991       .  S
O3688      C4974   1.373       .  S
O3688      H3699   0.992       .  S
H3689      C4969   1.084       .  S
C3690      C3691   1.385       .  A
C3690      O4985   1.372       .  S
C3691      C3692   1.407       .  A
C3691      H4986   1.083       .  S
C3692      C3693   1.404       .  A
C3693      C3694   1.398       .  A
C3693      O3697   1.372       .  S
C3694      H3698   1.083       .  S
O3695      C4980   1.381       .  S
O3695      H3700   0.988       .  S
H3696      C4981   1.083       .  S
O3697      H3701   0.992       .  S
C3703      C3704   1.407       .  A
C3703      C3708   1.397       .  A
C3703      H3713   1.083       .  S
C3704      C3705   1.399       .  A
C3704      C3709   1.465       .  S
C3705      C3706   1.385       .  A
C3705      O3710   1.370       .  S
C3706      C3707   1.400       .  A
C3706      H3711   1.085       .  S
C3707      C3708   1.400       .  A
C3708      O3712   1.372       .  S
C3709      C3714   1.403       .  A
C3709      C3718   1.407       .  A
O3710      H3726   0.992       .  S
O3712      H3723   0.991       .  S
C3714      C3715   1.391       .  A
C3714      O3719   1.373       .  S
C3715      C3716   1.404       .  A
C3715      H3720   1.084       .  S
C3716      C3717   1.397       .  A
C3717      C3718   1.390       .  A
C3717      O3721   1.372       .  S
C3718      H3722   1.084       .  S
O3719      H3724   0.992       .  S
O3721      H3725   0.992       .  S
C3727      C3728   1.412       .  A
C3727      C3732   1.401       .  A
C3727      H3737   1.082       .  S
C3728      C3729   1.408       .  A
C3728      C3733   1.510       .  S
C3729      C3730   1.388       .  A
C3729      O3734   1.363       .  S
C3730      C3731   1.397       .  A
C3730      H3735   1.080       .  S
C3731      C3732   1.405       .  A
C3732      O3736   1.371       .  S
C3733      C3738   1.423       .  A
C3733      C3742   1.421       .  A
O3734      H3750   0.991       .  S
O3736      H3747   0.992       .  S
C3738      C3739   1.387       .  A
C3738      O3743   1.370       .  S
C3739      C3740   1.395       .  A
C3739      H3744   1.085       .  S
C3740      C3741   1.395       .  A
C3741      C3742   1.404       .  A
C3741      O3745   1.371       .  S
C3742      H3746   1.077       .  S
O3745      H3749   0.992       .  S
C3751      C3752   1.395       .  A
C3751      H3761   1.077       .  S
C3752      C3753   1.407       .  A
C3752      C3757   1.461       .  S
C3753      O3758   1.371       .  S
C3754      C3755   1.402       .  A
C3754      H3759   1.082       .  S
C3755      C3756   1.394       .  A
C3756      O3760   1.366       .  S
C3757      C3762   1.403       .  A
C3757      C3766   1.408       .  A
O3758      H3774   0.989       .  S
O3760      H3771   0.987       .  S
C3762      C3763   1.385       .  A
C3762      O3767   1.374       .  S
C3763      C3764   1.401       .  A
C3763      H3768   1.084       .  S
C3764      C3765   1.400       .  A
C3765      C3766   1.398       .  A
C3765      O3769   1.371       .  S
C3766      H3770   1.084       .  S
O3767      H3772   0.991       .  S
O3769      H3773   0.992       .  S
C3775      C3776   1.408       .  A
C3775      C3780   1.397       .  A
C3775      H3785   1.081       .  S
C3776      C3777   1.422       .  A
C3776      C3781   1.495       .  S
C3777      C3778   1.386       .  A
C3777      O3782   1.368       .  S
C3778      C3779   1.389       .  A
C3778      H3783   1.083       .  S
C3779      C3780   1.400       .  A
C3780      O3784   1.369       .  S
C3781      C3786   1.421       .  A
C3781      C3790   1.408       .  A
O3782      H3798   0.993       .  S
O3784      H3795   0.991       .  S
C3786      C3787   1.392       .  A
C3786      O3791   1.371       .  S
C3787      C3788   1.398       .  A
C3787      H3792   1.084       .  S
C3788      C3789   1.403       .  A
C3788      C4538   1.462       .  S
C3789      C3790   1.394       .  A
C3789      O3793   1.373       .  S
C3790      H3794   1.082       .  S
O3791      H3796   0.990       .  S
O3793      H5087   0.991       .  S
H3797      O5083   0.992       .  S
C3799      C3800   1.405       .  A
C3799      C3804   1.394       .  A
C3799      H3809   1.083       .  S
C3800      C3801   1.417       .  A
C3800      C3805   1.479       .  S
C3801      C3802   1.388       .  A
C3801      O3806   1.372       .  S
C3802      C3803   1.398       .  A
C3802      H3807   1.084       .  S
C3803      C3804   1.407       .  A
C3805      C3810   1.406       .  A
C3805      C3814   1.402       .  A
O3806      H3822   0.992       .  S
O3808      H3819   0.992       .  S
C3810      C3811   1.398       .  A
C3810      O3815   1.371       .  S
C3811      C3812   1.400       .  A
C3811      H3816   1.072       .  S
C3812      C3813   1.402       .  A
C3813      C3814   1.391       .  A
C3813      O3817   1.378       .  S
C3814      H3818   1.082       .  S
O3815      H3820   0.991       .  S
O3817      H3821   0.992       .  S
C3823      C3824   1.413       .  A
C3823      C3828   1.400       .  A
C3823      H3833   1.082       .  S
C3824      C3825   1.400       .  A
C3824      C3829   1.499       .  S
C3825      C3826   1.394       .  A
C3825      O3830   1.368       .  S
C3826      C3827   1.399       .  A
C3826      H3831   1.079       .  S
C3827      C3828   1.414       .  A
C3828      O3832   1.371       .  S
C3829      C3834   1.417       .  A
C3829      C3838   1.407       .  A
O3830      H3846   0.991       .  S
O3832      H3843   0.991       .  S
C3834      C3835   1.383       .  A
C3834      O3839   1.368       .  S
C3835      C3836   1.395       .  A
C3835      H3840   1.076       .  S
C3836      C3837   1.406       .  A
C3837      C3838   1.402       .  A
C3837      O3841   1.371       .  S
C3838      H3842   1.080       .  S
O3839      H3844   0.991       .  S
O3841      H3845   0.991       .  S
C3847      C3848   1.400       .  A
C3847      C3852   1.398       .  A
C3847      H3857   1.073       .  S
C3848      C3849   1.394       .  A
C3848      C3853   1.490       .  S
C3849      C3850   1.410       .  A
C3849      O3854   1.370       .  S
C3850      C3851   1.408       .  A
C3850      H3855   1.070       .  S
C3851      C3852   1.417       .  A
C3852      O3856   1.371       .  S
C3853      C3858   1.402       .  A
C3853      C3862   1.404       .  A
O3854      H3870   0.989       .  S
O3856      H3867   0.992       .  S
C3858      C3859   1.397       .  A
C3858      O3863   1.361       .  S
C3859      C3860   1.400       .  A
C3859      H3864   1.082       .  S
C3860      C3861   1.411       .  A
C3861      C3862   1.398       .  A
C3861      O3865   1.367       .  S
C3862      H3866   1.083       .  S
O3863      H3868   0.991       .  S
O3865      H3869   0.989       .  S
N3871      N3878   1.441       .  S
C3872      C3873   1.384       .  A
C3872      C4496   1.486       .  S
C3873      C3874   1.376       .  A
C3873      H3876   1.082       .  S
C3874      C3875   1.378       .  A
C3874      H3877   1.080       .  S
C3875      C4054   1.545       .  S
N3878      C3882   1.402       .  A
N3878      C3879   1.361       .  A
C3879      C3880   1.380       .  A
C3879      C4472   1.471       .  S
C3880      C3881   1.347       .  A
C3880      H3883   1.081   1_554  S
C3881      C3882   1.386       .  A
C3881      H3884   1.083       .  S
C3882      C3940   1.533       .  S
N3885      N3892   1.440       .  S
N3885      C3889   1.398       .  A
N3885      C3886   1.351       .  A
C3886      C3887   1.374       .  A
C3887      C3888   1.369       .  A
C3888      C3889   1.384       .  A
C3888      H3891   1.083       .  S
C3889      C4056   1.538       .  S
N3892      C3896   1.410       .  A
N3892      C3893   1.364       .  A
C3893      C3894   1.371       .  A
C3894      C3895   1.366       .  A
C3894      H3897   1.083   1_554  S
C3895      C3896   1.392       .  A
C3895      H3898   1.083       .  S
C3896      C3934   1.565       .  S
N3899      N3906   1.443       .  S
N3899      C3903   1.405       .  A
N3899      C3900   1.356       .  A
C3900      C3901   1.375       .  A
C3900      C4400   1.475   1_554  S
C3901      C3902   1.372       .  A
C3901      H3904   1.076   1_554  S
C3902      C3903   1.388       .  A
C3902      H3905   1.084       .  S
C3903      C3939   1.562       .  S
N3906      C3910   1.400       .  A
N3906      C3907   1.360       .  A
C3907      C3908   1.374       .  A
C3907      C4385   1.467       .  S
C3908      C3909   1.367   1_655  A
C3908      H3911   1.078   1_655  S
C3909      C3910   1.386   1_455  A
C3909      H3912   1.083       .  S
C3910      C4039   1.560       .  S
C3913      C3914   1.427       .  A
C3913      C3918   1.423       .  A
C3913      C4505   1.474       .  S
C3914      C3915   1.414       .  A
C3914      C4409   1.476       .  S
C3915      C3916   1.404       .  A
C3915      C4457   1.514       .  S
C3916      C3917   1.392       .  A
C3916      C4481   1.465       .  S
C3917      C3918   1.391       .  A
C3917      C4376   1.475       .  S
C3918      C4424   1.493       .  S
O3919      C3935   1.301       .  A
O3919     Zn3925   2.218       .  S
C3920      C3953   1.557       .  S
C3920      O3936   1.291       .  A
C3920      O3933   1.294       .  A
O3921      C3934   1.288       .  A
O3921     Cd3928   2.139       .  S
O3922      C3940   1.287       .  A
O3922     Cd3931   2.198       .  S
O3923      C3937   1.285       .  A
O3923     Cd3927   2.154       .  S
O3924      C3935   1.284       .  A
O3924     Cd3927   2.104       .  S
Zn3925     O3936   2.133       .  S
Zn3925     O3938   2.226       .  S
Zn3925     O3930   2.044       .  S
O3926      C3937   1.293       .  A
O3926     Cd3931   2.170       .  S
Cd3927     O3929   2.184       .  S
Cd3927     O3930   2.085       .  S
Cd3928     O3932   2.216       .  S
Cd3928     O3941   2.102       .  S
Cd3928     O3930   2.020       .  S
O3929      C3939   1.279       .  A
O3930     Cd3931   2.117       .  S
Cd3931     O3933   2.229       .  S
O3932      C3939   1.297       .  A
C3934      O3938   1.293       .  A
C3935      C3981   1.534       .  S
C3937      C3967   1.518       .  S
C3940      O3941   1.287       .  A
N3942      N3949   1.446       .  S
N3942      C3946   1.399       .  A
N3942      C3943   1.356       .  A
C3943      C3944   1.376       .  A
C3943      C4361   1.460       .  S
C3944      C3945   1.369       .  A
C3944      H3947   1.083       .  S
C3945      C3946   1.389       .  A
C3945      H3948   1.080       .  S
C3946      C4077   1.577       .  S
N3949      C3950   1.358       .  A
C3950      C4337   1.471       .  S
C3951      C3952   1.374       .  A
C3951      H3954   1.083       .  S
C3952      C3953   1.385       .  A
C3952      H3955   1.081       .  S
N3956      N3963   1.436       .  S
N3956      C3960   1.397       .  A
N3956      C3957   1.342       .  A
C3957      C3958   1.373       .  A
C3957      C4304   1.479       .  S
C3958      C3959   1.367       .  A
C3958      H3961   1.077       .  S
C3959      C3960   1.379       .  A
C3959      H3962   1.084       .  S
C3960      C4079   1.543       .  S
N3963      C3967   1.393       .  A
N3963      C3964   1.348       .  A
C3964      C3965   1.372       .  A
C3964      C4280   1.449       .  S
C3965      C3966   1.362       .  A
C3965      H3968   1.080       .  S
C3966      C3967   1.377       .  A
C3966      H3969   1.083       .  S
N3970      C3974   1.390       .  A
N3970      C3971   1.352       .  A
C3971      C3972   1.369       .  A
C3971      C4265   1.474       .  S
C3972      C3973   1.369       .  A
C3972      H3975   1.066       .  S
C3973      C3974   1.384       .  A
C3973      H3976   1.083       .  S
C3974      C4062   1.555       .  S
N3977      C3981   1.384       .  A
N3977      C3978   1.359       .  A
C3978      C3979   1.389       .  A
C3978      C4241   1.503       .  S
C3979      C3980   1.363       .  A
C3979      H3982   1.080       .  S
C3980      C3981   1.381       .  A
C3980      H3983   1.078       .  S
C3984      C3989   1.399       .  A
C3984      C4256   1.478       .  S
C3985      C3986   1.384       .  A
C3985      C4289   1.435       .  S
C3986      C3987   1.387   1_565  A
C3986      C4352   1.468       .  S
C3988      C3989   1.415   1_545  A
C3989      C4328   1.457       .  S
N3990      N3997   1.431       .  S
N3990      C3994   1.386       .  A
N3990      C3991   1.355       .  A
C3991      C3992   1.377       .  A
C3991      C4208   1.470       .  S
C3992      C3993   1.365       .  A
C3992      H3995   1.080       .  S
C3993      C3994   1.386       .  A
C3993      H3996   1.083       .  S
C3994      C4081   1.531       .  S
N3997      C4001   1.385       .  A
N3997      C3998   1.359       .  A
C3998      C3999   1.387       .  A
C3998      C4184   1.489       .  S
C3999      C4000   1.362       .  A
C3999      H4002   1.080       .  S
C4000      C4001   1.381       .  A
C4000      H4003   1.083       .  S
C4001      C4059   1.521       .  S
N4004      N4011   1.433       .  S
N4004      C4008   1.396       .  A
N4004      C4005   1.356       .  A
C4005      C4006   1.373       .  A
C4005      C4169   1.453       .  S
C4006      C4007   1.349       .  A
C4006      H4009   1.083       .  S
C4007      C4008   1.388       .  A
C4007      H4010   1.080       .  S
C4008      C4076   1.528       .  S
N4011      C4015   1.394       .  A
N4011      C4012   1.357       .  A
C4012      C4013   1.382       .  A
C4012      C4136   1.488       .  S
C4013      C4014   1.376       .  A
C4014      C4015   1.389       .  A
C4014      H4017   1.082       .  S
C4015      C4053   1.563       .  S
N4018      N4025   1.435       .  S
N4018      C4022   1.392       .  A
N4018      C4019   1.353       .  A
C4019      C4020   1.377       .  A
C4019      C4121   1.457       .  S
C4020      C4021   1.367       .  A
C4020      H4023   1.082       .  S
C4021      C4022   1.383       .  A
C4021      H4024   1.078       .  S
C4022      C4058   1.552       .  S
N4025      C4029   1.403       .  A
N4025      C4026   1.355       .  A
C4026      C4027   1.363       .  A
C4026      C4097   1.455       .  S
C4027      C4028   1.354       .  A
C4027      H4030   1.082       .  S
C4028      C4029   1.387       .  A
C4028      H4031   1.083       .  S
C4029      C4082   1.536       .  S
C4032      C4033   1.395       .  A
C4032      C4037   1.410       .  A
C4032      C4217   1.476       .  S
C4033      C4034   1.401       .  A
C4033      C4145   1.483       .  S
C4034      C4035   1.400       .  A
C4034      C4088   1.455       .  S
C4035      C4036   1.419       .  A
C4035      C4193   1.488       .  S
C4036      C4037   1.425       .  A
C4036      C4160   1.517       .  S
C4037      C4112   1.458       .  S
O4038      C4054   1.293       .  A
O4038     Zn4689   2.142   1_554  S
C4039      O4055   1.287   1_655  A
C4039      O4052   1.298       .  A
O4040      C4053   1.289       .  A
O4040     Cd4047   2.148       .  S
O4041      C4059   1.290       .  A
O4041     Cd4695   2.203       .  S
O4043      C4054   1.286   1_545  A
O4043     Cd4046   2.162       .  S
Zn4044     O4683   2.159       .  S
Zn4044     O4057   2.208       .  S
Zn4044     O4049   2.053       .  S
O4045     Cd4050   2.182   1_554  S
Cd4046     O4694   2.079   1_544  S
Cd4047     O4051   2.144   1_565  S
Cd4047     O4049   2.041       .  S
O4048      C4058   1.291       .  A
O4049     Cd4691   2.100   1_565  S
Cd4050     O4686   2.239       .  S
Cd4050     O4052   2.270   1_556  S
C4053      O4057   1.295       .  A
C4059      O4060   1.280       .  A
O4061      C4077   1.293       .  A
O4061     Zn4067   2.115       .  S
C4062      O4078   1.301       .  A
C4062      O4075   1.291       .  A
O4063      C4076   1.281       .  A
O4063     Cd4070   2.073       .  S
O4064      C4082   1.278       .  A
O4064     Cd4073   2.211       .  S
O4065      C4079   1.302       .  A
O4065     Cd4069   2.204       .  S
O4066      C4077   1.303       .  A
O4066     Cd4069   2.288       .  S
Zn4067     O4078   2.233       .  S
Zn4067     O4080   2.167       .  S
Zn4067     O4072   2.058       .  S
O4068      C4079   1.295       .  A
O4068     Cd4073   2.202       .  S
Cd4069     O4071   2.219       .  S
Cd4069     O4072   2.115       .  S
Cd4070     O4074   2.077       .  S
Cd4070     O4083   2.109       .  S
Cd4070     O4072   1.991       .  S
O4071      C4081   1.289       .  A
O4072     Cd4073   2.089       .  S
Cd4073     O4075   2.147       .  S
O4074      C4081   1.277       .  A
C4076      O4080   1.285       .  A
C4082      O4083   1.282       .  A
C4084      C4085   1.408       .  A
C4084      C4089   1.395       .  A
C4084      H4094   1.083       .  S
C4085      C4086   1.409       .  A
C4085      C4090   1.461       .  S
C4086      C4087   1.375       .  A
C4086      O4091   1.372       .  S
C4087      C4088   1.386       .  A
C4087      H4092   1.083       .  S
C4088      C4089   1.399       .  A
C4089      O4093   1.371       .  S
C4090      C4095   1.395       .  A
C4090      C4099   1.401       .  A
O4091      H4107   0.991       .  S
O4093      H4104   0.991       .  S
C4095      O4100   1.365       .  S
C4096      C4097   1.395       .  A
C4096      H4101   1.081       .  S
C4097      C4098   1.402       .  A
C4098      O4102   1.371       .  S
C4099      H4103   1.082       .  S
O4100      H4105   0.993       .  S
O4102      H4106   0.990       .  S
C4108      C4109   1.408       .  A
C4108      C4113   1.403       .  A
C4108      H4118   1.083       .  S
C4109      C4110   1.400       .  A
C4109      C4114   1.457       .  S
C4110      C4111   1.378       .  A
C4110      O4115   1.371       .  S
C4111      C4112   1.396       .  A
C4111      H4116   1.083       .  S
C4112      C4113   1.403       .  A
C4113      O4117   1.371       .  S
C4114      C4119   1.405       .  A
C4114      C4123   1.399       .  A
O4115      H4131   0.989       .  S
O4117      H4128   0.991       .  S
C4119      C4120   1.378       .  A
C4119      O4124   1.369       .  S
C4120      C4121   1.397       .  A
C4120      H4125   1.084       .  S
C4121      C4122   1.401       .  A
C4122      C4123   1.398       .  A
C4122      O4126   1.368       .  S
C4123      H4127   1.082       .  S
O4124      H4129   0.990       .  S
O4126      H4130   0.992       .  S
C4132      C4133   1.402       .  A
C4132      H4142   1.082   1_455  S
C4133      C4134   1.414       .  A
C4133      C4138   1.490   1_455  S
C4134      C4135   1.406       .  A
C4134      O4139   1.370       .  S
C4135      H4140   1.080       .  S
C4136      C4137   1.402       .  A
C4137      O4141   1.367       .  S
C4138      C4143   1.407       .  A
C4138      C4147   1.407       .  A
O4139      H4155   0.992       .  S
O4141      H4152   0.992       .  S
C4143      C4144   1.396       .  A
C4143      O4148   1.362       .  S
C4144      C4145   1.395       .  A
C4144      H4149   1.080       .  S
C4145      C4146   1.404       .  A
C4146      C4147   1.401       .  A
C4146      O4150   1.374       .  S
C4147      H4151   1.081       .  S
O4148      H4153   0.991       .  S
O4150      H4154   0.990       .  S
C4156      C4157   1.394       .  A
C4156      C4161   1.403       .  A
C4156      H4166   1.081       .  S
C4157      C4158   1.402       .  A
C4158      C4159   1.392       .  A
C4159      C4160   1.402       .  A
C4159      H4164   1.083       .  S
C4160      C4161   1.415       .  A
C4161      O4165   1.358       .  S
C4162      C4167   1.407       .  A
C4162      C4171   1.408       .  A
O4163      H4179   0.991   1_545  S
O4165      H4176   0.991       .  S
C4167      C4168   1.387       .  A
C4167      O4172   1.367       .  S
C4168      C4169   1.394       .  A
C4168      H4173   1.082       .  S
C4169      C4170   1.405       .  A
C4170      C4171   1.390       .  A
C4170      O4174   1.372       .  S
C4171      H4175   1.084   1_565  S
O4172      H4177   0.991       .  S
O4174      H4178   0.990       .  S
C4180      C4181   1.412       .  A
C4180      H4190   1.081       .  S
C4181      C4186   1.491       .  S
C4182      C4183   1.395       .  A
C4182      O4187   1.368       .  S
C4183      C4184   1.403       .  A
C4183      H4188   1.076       .  S
C4184      C4185   1.406       .  A
C4185      O4189   1.368       .  S
C4186      C4191   1.422       .  A
C4186      C4195   1.405       .  A
O4187      H4203   0.992       .  S
O4189      H4200   0.991       .  S
C4191      C4192   1.388       .  A
C4191      O4196   1.371       .  S
C4192      C4193   1.396       .  A
C4192      H4197   1.081       .  S
C4193      C4194   1.404       .  A
C4194      C4195   1.398       .  A
C4194      O4198   1.368       .  S
C4195      H4199   1.080       .  S
O4196      H4201   0.992       .  S
O4198      H4202   0.992       .  S
C4204      C4205   1.406       .  A
C4204      C4209   1.395       .  A
C4204      H4214   1.065       .  S
C4205      C4206   1.412       .  A
C4205      C4210   1.493       .  S
C4206      C4207   1.392       .  A
C4206      O4211   1.369       .  S
C4207      C4208   1.398       .  A
C4207      H4212   1.082       .  S
C4208      C4209   1.397       .  A
C4209      O4213   1.368       .  S
C4210      C4215   1.410       .  A
C4210      C4219   1.404       .  A
O4211      H4227   0.990       .  S
O4213      H4224   0.992       .  S
C4215      C4216   1.401       .  A
C4215      O4220   1.371       .  S
C4216      C4217   1.405       .  A
C4216      H4221   1.083       .  S
C4217      C4218   1.395       .  A
C4218      C4219   1.389       .  A
C4218      O4222   1.371       .  S
C4219      H4223   1.074       .  S
O4220      H4225   0.992       .  S
O4222      H4226   0.991       .  S
C4228      C4229   1.398       .  A
C4228      C4233   1.391       .  A
C4228      H4238   1.084       .  S
C4229      C4230   1.406       .  A
C4229      C4234   1.464       .  S
C4231      H4236   1.083       .  S
C4232      C4233   1.408       .  A
C4234      C4239   1.395       .  A
C4234      C4243   1.396       .  A
O4235      H4251   0.992       .  S
O4237      H4248   0.991   1_565  S
C4239      C4240   1.397       .  A
C4239      O4244   1.368       .  S
C4240      C4241   1.416       .  A
C4240      H4245   1.074       .  S
C4241      C4242   1.411       .  A
C4242      C4243   1.391       .  A
O4244      H4249   0.991       .  S
O4246      H4250   0.991       .  S
C4252      C4253   1.400       .  A
C4252      C4257   1.394       .  A
C4252      H4262   1.084       .  S
C4253      C4258   1.461       .  S
C4254      C4255   1.391       .  A
C4254      O4259   1.371       .  S
C4255      H4260   1.085       .  S
C4256      C4257   1.406       .  A
C4257      O4261   1.370       .  S
C4258      C4263   1.399       .  A
C4258      C4267   1.402       .  A
O4259      H4275   0.993       .  S
O4261      H4272   0.992       .  S
C4263      C4264   1.393       .  A
C4263      O4268   1.372       .  S
C4264      C4265   1.409       .  A
C4264      H4269   1.084       .  S
C4265      C4266   1.404       .  A
C4266      C4267   1.398       .  A
O4268      H4273   0.992       .  S
O4270      H4274   0.992   1_655  S
C4276      C4277   1.391       .  A
C4276      C4281   1.375       .  A
C4276      H4286   1.085       .  S
C4277      C4278   1.407       .  A
C4277      C4282   1.438       .  S
C4278      C4279   1.392       .  A
C4278      O4283   1.373       .  S
C4279      C4280   1.394       .  A
C4279      H4284   1.080       .  S
C4280      C4281   1.411       .  A
C4281      O4285   1.371       .  S
C4282      C4287   1.399       .  A
C4282      C4291   1.401       .  A
O4283      H4299   0.990       .  S
O4285      H4296   0.992       .  S
C4287      C4288   1.384       .  A
C4287      O4292   1.370       .  S
C4288      C4289   1.399       .  A
C4288      H4293   1.084       .  S
C4289      C4290   1.389       .  A
C4290      C4291   1.379       .  A
C4290      O4294   1.370       .  S
C4291      H4295   1.081       .  S
O4292      H4297   0.992       .  S
O4294      H4298   0.991       .  S
C4300      C4301   1.398       .  A
C4300      C4305   1.382       .  A
C4300      H4310   1.084       .  S
C4301      C4302   1.393       .  A
C4301      C4306   1.463       .  S
C4302      C4303   1.393       .  A
C4302      O4307   1.356       .  S
C4303      C4304   1.396       .  A
C4303      H4308   1.075       .  S
C4304      C4305   1.414       .  A
C4305      O4309   1.365       .  S
C4306      C4311   1.401       .  A
C4306      C4315   1.407       .  A
O4307      H4323   0.989       .  S
O4309      H4320   0.987       .  S
C4311      C4312   1.386       .  A
C4311      O4316   1.371       .  S
C4312      C4313   1.404       .  A
C4312      H4317   1.083       .  S
C4313      C4314   1.397       .  A
C4314      C4315   1.396       .  A
C4314      O4318   1.367       .  S
C4315      H4319   1.084       .  S
O4316      H4321   0.992       .  S
O4318      H4322   0.991       .  S
C4324      C4325   1.394   1_565  A
C4324      C4329   1.391       .  A
C4325      C4326   1.414       .  A
C4325      C4330   1.461       .  S
C4326      C4327   1.391       .  A
C4326      O4331   1.373       .  S
C4327      C4328   1.393   1_545  A
C4327      H4332   1.084       .  S
C4328      C4329   1.411       .  A
C4330      C4335   1.404       .  A
C4330      C4339   1.401   1_545  A
O4331      H4347   0.991       .  S
O4333      H4344   0.991       .  S
C4335      C4336   1.389       .  A
C4336      C4337   1.407   1_545  A
C4337      C4338   1.402       .  A
C4338      C4339   1.394       .  A
C4338      O4342   1.371       .  S
C4339      H4343   1.084       .  S
O4340      H4345   0.991       .  S
O4342      H4346   0.992       .  S
C4348      C4349   1.401       .  A
C4348      C4353   1.398       .  A
C4348      H4358   1.084       .  S
C4349      C4350   1.396       .  A
C4349      C4354   1.458       .  S
C4350      C4351   1.388       .  A
C4350      O4355   1.366       .  S
C4351      C4352   1.399       .  A
C4351      H4356   1.083       .  S
C4352      C4353   1.404       .  A
C4353      O4357   1.371       .  S
C4354      C4359   1.400       .  A
C4354      C4363   1.403       .  A
O4355      H4371   0.991       .  S
O4357      H4368   0.991       .  S
C4359      C4360   1.394       .  A
C4359      O4364   1.372       .  S
C4360      C4361   1.408       .  A
C4360      H4365   1.084       .  S
C4361      C4362   1.396       .  A
C4362      C4363   1.401       .  A
C4362      O4366   1.374   1_565  S
C4363      H4367   1.084       .  S
O4364      H4369   0.992       .  S
O4366      H4370   0.992       .  S
C4372      C4373   1.409       .  A
C4372      C4377   1.400       .  A
C4372      H4382   1.080       .  S
C4373      C4374   1.408       .  A
C4373      C4378   1.480       .  S
C4374      C4375   1.399       .  A
C4374      O4379   1.374       .  S
C4375      C4376   1.408       .  A
C4375      H4380   1.084       .  S
C4376      C4377   1.405       .  A
C4377      O4381   1.374       .  S
C4378      C4383   1.411       .  A
C4378      C4387   1.411       .  A
O4379      H4395   0.992       .  S
O4381      H4392   0.992       .  S
C4383      C4384   1.384       .  A
C4383      O4388   1.369       .  S
C4384      C4385   1.397       .  A
C4384      H4389   1.084       .  S
C4385      C4386   1.398       .  A
C4386      C4387   1.405       .  A
C4386      O4390   1.370       .  S
C4387      H4391   1.082       .  S
O4388      H5038   0.989       .  S
O4390      H4394   0.992       .  S
H4393      O5033   0.992       .  S
C4396      C4397   1.409       .  A
C4396      H4406   1.083       .  S
C4397      C4398   1.410       .  A
C4397      C4402   1.485       .  S
C4398      O4403   1.369       .  S
C4399      C4400   1.399   1_554  A
C4399      H4404   1.085       .  S
C4400      C4401   1.408       .  A
C4401      O4405   1.372       .  S
C4402      C4407   1.410       .  A
C4402      C4411   1.414       .  A
O4403      H4419   0.992       .  S
O4405      H4416   0.991       .  S
C4407      C4408   1.385       .  A
C4407      O4412   1.373       .  S
C4408      C4409   1.398       .  A
C4408      H4413   1.078       .  S
C4409      C4410   1.400       .  A
C4410      C4411   1.401       .  A
C4410      O4414   1.369       .  S
C4411      H4415   1.083       .  S
O4412      H4417   0.992       .  S
O4414      H4418   0.992       .  S
C4420      C4421   1.400       .  A
C4420      C4425   1.400       .  A
C4420      H4430   1.083       .  S
C4421      C4422   1.405   1_554  A
C4421      C4426   1.484       .  S
C4422      C4423   1.390   1_556  A
C4422      O4427   1.360       .  S
C4423      C4424   1.393       .  A
C4423      H4428   1.082   1_554  S
C4424      C4425   1.415       .  A
C4425      O4429   1.359       .  S
C4426      C4431   1.412       .  A
C4426      C4435   1.401   1_554  A
O4427      H4443   0.989       .  S
O4429      H4440   0.989       .  S
C4431      C4432   1.383       .  A
C4431      O4436   1.364       .  S
C4432      C4433   1.390       .  A
C4432      H4437   1.084       .  S
C4433      C4434   1.415   1_554  A
C4434      C4435   1.403       .  A
C4434      O4438   1.372       .  S
C4435      H4439   1.081       .  S
O4436      H4441   0.992       .  S
C4444      C4445   1.409       .  A
C4444      C4449   1.400       .  A
C4444      H4454   1.081       .  S
C4445      C4446   1.407       .  A
C4445      C4450   1.479       .  S
C4446      C4447   1.387       .  A
C4446      O4451   1.371       .  S
C4447      C4448   1.401       .  A
C4447      H4452   1.084       .  S
C4448      C4449   1.402       .  A
C4450      C4455   1.407       .  A
C4450      C4459   1.402       .  A
O4451      H4467   0.992       .  S
O4453      H4464   0.992       .  S
C4455      C4456   1.395       .  A
C4455      O4460   1.372       .  S
C4456      C4457   1.410       .  A
C4456      H4461   1.065       .  S
C4457      C4458   1.414       .  A
C4458      C4459   1.398       .  A
C4458      O4462   1.368       .  S
C4459      H4463   1.083       .  S
O4460      H4465   0.992       .  S
O4462      H4466   0.991       .  S
C4468      C4469   1.384       .  A
C4468      C4473   1.378       .  A
C4468      H4478   1.053   1_554  S
C4469      C4470   1.394       .  A
C4469      C4474   1.465       .  S
C4470      C4471   1.386       .  A
C4470      O4475   1.375       .  S
C4471      C4472   1.417       .  A
C4471      H4476   1.076       .  S
C4472      C4473   1.408       .  A
C4473      O4477   1.368   1_554  S
C4474      C4479   1.419       .  A
C4474      C4483   1.391       .  A
O4475      H4491   0.990       .  S
O4477      H4488   0.991       .  S
C4479      C4480   1.377       .  A
C4479      O4484   1.369       .  S
C4480      C4481   1.377       .  A
C4480      H4485   1.072       .  S
C4481      C4482   1.416       .  A
C4482      C4483   1.387       .  A
C4482      O4486   1.367       .  S
C4483      H4487   1.081       .  S
O4484      H4489   0.992       .  S
O4486      H4490   0.992       .  S
C4492      C4493   1.402       .  A
C4492      C4497   1.388       .  A
C4492      H4502   1.082       .  S
C4493      C4494   1.406       .  A
C4493      C4498   1.483       .  S
C4494      C4495   1.400       .  A
C4494      O4499   1.372   1_565  S
C4495      C4496   1.401       .  A
C4495      H4500   1.069   1_565  S
C4496      C4497   1.413       .  A
C4497      O4501   1.372       .  S
C4498      C4503   1.406       .  A
C4498      C4507   1.397       .  A
O4499      H4515   0.992       .  S
O4501      H4512   0.988       .  S
C4503      C4504   1.386       .  A
C4503      O4508   1.355       .  S
C4504      C4505   1.389       .  A
C4504      H4509   1.085       .  S
C4505      C4506   1.407       .  A
C4506      C4507   1.402       .  A
C4506      O4510   1.377   1_554  S
C4507      H4511   1.076   1_554  S
O4508      H4513   0.990       .  S
O4510      H4514   0.992       .  S
N4516      N4523   1.448       .  S
C4517      C4518   1.387       .  A
C4517      C5141   1.511   1_545  S
C4518      C4519   1.367   1_545  A
C4518      H4521   1.080   1_545  S
C4519      C4520   1.376   1_565  A
C4519      H4522   1.083       .  S
C4520      C4699   1.542   1_545  S
N4523      C4527   1.411       .  A
N4523      C4524   1.373       .  A
C4524      C4525   1.374       .  A
C4524      C5117   1.489       .  S
C4525      C4526   1.352       .  A
C4525      H4528   1.078       .  S
C4526      C4527   1.386       .  A
C4526      H4529   1.083       .  S
C4527      C4585   1.549       .  S
N4530      N4537   1.445       .  S
N4530      C4534   1.408       .  A
N4530      C4531   1.350       .  A
C4531      C4532   1.377       .  A
C4532      C4533   1.366       .  A
C4533      C4534   1.381       .  A
C4533      H4536   1.082       .  S
C4534      C4701   1.542       .  S
N4537      C4541   1.422       .  A
N4537      C4538   1.359       .  A
C4538      C4539   1.365       .  A
C4539      C4540   1.354       .  A
C4539      H4542   1.078       .  S
C4540      C4541   1.387       .  A
C4540      H4543   1.079       .  S
C4541      C4579   1.569       .  S
N4544      N4551   1.439       .  S
N4544      C4548   1.402       .  A
N4544      C4545   1.353       .  A
C4545      C4546   1.381       .  A
C4545      C5045   1.462       .  S
C4546      C4547   1.366       .  A
C4546      H4549   1.078       .  S
C4547      C4548   1.380       .  A
C4547      H4550   1.083       .  S
C4548      C4584   1.545       .  S
N4551      C4555   1.403       .  A
N4551      C4552   1.356       .  A
C4552      C4553   1.372       .  A
C4552      C5030   1.472       .  S
C4553      C4554   1.374       .  A
C4553      H4556   1.083       .  S
C4554      C4555   1.389       .  A
C4554      H4557   1.083       .  S
C4555      C4684   1.542       .  S
C4558      C4559   1.383       .  A
C4558      C4563   1.407       .  A
C4558      C5150   1.475       .  S
C4559      C4560   1.384       .  A
C4559      C5054   1.461       .  S
C4560      C4561   1.403       .  A
C4560      C5102   1.466       .  S
C4561      C4562   1.404       .  A
C4561      C5126   1.476       .  S
C4562      C4563   1.416       .  A
C4562      C5021   1.469       .  S
C4563      C5069   1.465       .  S
O4564      C4580   1.307       .  A
O4564     Zn4570   2.274       .  S
C4565      C4598   1.569       .  S
C4565      O4581   1.296       .  A
C4565      O4578   1.299       .  A
O4566      C4579   1.292       .  A
O4566     Cd4573   2.145       .  S
O4567      C4585   1.290       .  A
O4567     Cd4576   2.229       .  S
O4568      C4582   1.288       .  A
O4568     Cd4572   2.182       .  S
O4569      C4580   1.284       .  A
O4569     Cd4572   2.106       .  S
Zn4570     O4581   2.153       .  S
Zn4570     O4583   2.214       .  S
Zn4570     O4575   2.072       .  S
O4571      C4582   1.298       .  A
O4571     Cd4576   2.199       .  S
Cd4572     O4574   2.180       .  S
Cd4572     O4575   2.107       .  S
Cd4573     O4577   2.176       .  S
Cd4573     O4586   2.137       .  S
Cd4573     O4575   2.018       .  S
O4574      C4584   1.281       .  A
O4575     Cd4576   2.109       .  S
Cd4576     O4578   2.249       .  S
O4577      C4584   1.293       .  A
C4579      O4583   1.290       .  A
C4580      C4626   1.549       .  S
C4582      C4612   1.545       .  S
C4585      O4586   1.289       .  A
N4587      N4594   1.434       .  S
N4587      C4591   1.389       .  A
N4587      C4588   1.353       .  A
C4588      C4589   1.377       .  A
C4588      C5006   1.470       .  S
C4589      C4590   1.369       .  A
C4589      H4592   1.071       .  S
C4590      C4591   1.385       .  A
C4590      H4593   1.083       .  S
C4591      C4722   1.549       .  S
N4594      C4595   1.347       .  A
C4595      C4982   1.466       .  S
C4596      C4597   1.373       .  A
C4596      H4599   1.080       .  S
C4597      C4598   1.386       .  A
C4597      H4600   1.080       .  S
N4601      N4608   1.443       .  S
N4601      C4605   1.391       .  A
N4601      C4602   1.351       .  A
C4602      C4603   1.382       .  A
C4602      C4949   1.468       .  S
C4603      C4604   1.370       .  A
C4603      H4606   1.078       .  S
C4604      C4605   1.381       .  A
C4604      H4607   1.081       .  S
C4605      C4724   1.543       .  S
N4608      C4612   1.393       .  A
N4608      C4609   1.354       .  A
C4609      C4610   1.368       .  A
C4609      C4925   1.462       .  S
C4610      C4611   1.370       .  A
C4610      H4613   1.079       .  S
C4611      C4612   1.385       .  A
C4611      H4614   1.080       .  S
N4615      C4619   1.403       .  A
N4615      C4616   1.362       .  A
C4616      C4617   1.368       .  A
C4616      C4910   1.472       .  S
C4617      C4618   1.351       .  A
C4617      H4620   1.083       .  S
C4618      C4619   1.383       .  A
C4618      H4621   1.085       .  S
C4619      C4707   1.535       .  S
N4622      C4626   1.397       .  A
N4622      C4623   1.361       .  A
C4623      C4624   1.381       .  A
C4623      C4886   1.467       .  S
C4624      C4625   1.362       .  A
C4624      H4627   1.082       .  S
C4625      C4626   1.384       .  A
C4625      H4628   1.078       .  S
C4629      C4634   1.389       .  A
C4629      C4901   1.466       .  S
C4630      C4631   1.401       .  A
C4630      C4934   1.467       .  S
C4631      C4632   1.397       .  A
C4631      C4997   1.463       .  S
C4633      C4634   1.395       .  A
C4634      C4973   1.468       .  S
N4635      N4642   1.430       .  S
N4635      C4639   1.392       .  A
N4635      C4636   1.352       .  A
C4636      C4637   1.380       .  A
C4636      C4853   1.467       .  S
C4637      C4638   1.359       .  A
C4637      H4640   1.082       .  S
C4638      C4639   1.387       .  A
C4638      H4641   1.083       .  S
C4639      C4726   1.525       .  S
N4642      C4646   1.392       .  A
N4642      C4643   1.365       .  A
C4643      C4644   1.381       .  A
C4643      C4829   1.481       .  S
C4644      C4645   1.364       .  A
C4644      H4647   1.082       .  S
C4645      C4646   1.382       .  A
C4645      H4648   1.081       .  S
C4646      C4704   1.538       .  S
N4649      N4656   1.435       .  S
N4649      C4653   1.402       .  A
N4649      C4650   1.350       .  A
C4650      C4651   1.372       .  A
C4650      C4814   1.451       .  S
C4651      C4652   1.357       .  A
C4651      H4654   1.080       .  S
C4652      C4653   1.379       .  A
C4652      H4655   1.077       .  S
C4653      C4721   1.534       .  S
N4656      C4660   1.395       .  A
N4656      C4657   1.347       .  A
C4657      C4658   1.375       .  A
C4657      C4781   1.477       .  S
C4658      C4659   1.372       .  A
C4659      C4660   1.391       .  A
C4659      H4662   1.081       .  S
C4660      C4698   1.553       .  S
N4663      N4670   1.454       .  S
N4663      C4667   1.404       .  A
N4663      C4664   1.357       .  A
C4664      C4665   1.372       .  A
C4664      C4766   1.461       .  S
C4665      C4666   1.365       .  A
C4665      H4668   1.075       .  S
C4666      C4667   1.385       .  A
C4666      H4669   1.084       .  S
C4667      C4703   1.560       .  S
N4670      C4674   1.400       .  A
N4670      C4671   1.354       .  A
C4671      C4672   1.376       .  A
C4671      C4742   1.470       .  S
C4672      C4673   1.362       .  A
C4672      H4675   1.083       .  S
C4673      C4674   1.389       .  A
C4673      H4676   1.085       .  S
C4674      C4727   1.550       .  S
C4677      C4678   1.412       .  A
C4677      C4682   1.401       .  A
C4677      C4862   1.468       .  S
C4678      C4679   1.408       .  A
C4678      C4790   1.472       .  S
C4679      C4680   1.402       .  A
C4679      C4733   1.479       .  S
C4680      C4681   1.400       .  A
C4680      C4838   1.473       .  S
C4681      C4682   1.394       .  A
C4681      C4805   1.474       .  S
C4682      C4757   1.475       .  S
O4683      C4699   1.293       .  A
C4684      O4700   1.297       .  A
C4684      O4697   1.290       .  A
O4685      C4698   1.286       .  A
O4685     Cd4692   2.124       .  S
O4686      C4704   1.296       .  A
O4688      C4699   1.284   1_545  A
O4688     Cd4691   2.149       .  S
Zn4689     O4702   2.225       .  S
Zn4689     O4694   2.056       .  S
O4690     Cd4695   2.158       .  S
Cd4692     O4696   2.131   1_565  S
Cd4692     O4694   2.036       .  S
O4693      C4703   1.283       .  A
Cd4695     O4697   2.175       .  S
C4698      O4702   1.297       .  A
C4704      O4705   1.278       .  A
O4706      C4722   1.287       .  A
O4706     Zn4712   2.093       .  S
C4707      O4723   1.298       .  A
C4707      O4720   1.294       .  A
O4708      C4721   1.281       .  A
O4708     Cd4715   2.088       .  S
O4709      C4727   1.276       .  A
O4709     Cd4718   2.161       .  S
O4710      C4724   1.298       .  A
O4710     Cd4714   2.191       .  S
O4711      C4722   1.296       .  A
O4711     Cd4714   2.240       .  S
Zn4712     O4723   2.185       .  S
Zn4712     O4725   2.162       .  S
Zn4712     O4717   2.039       .  S
O4713      C4724   1.289       .  A
O4713     Cd4718   2.183       .  S
Cd4714     O4716   2.199       .  S
Cd4714     O4717   2.104       .  S
Cd4715     O4719   2.094       .  S
Cd4715     O4728   2.179       .  S
Cd4715     O4717   2.012       .  S
O4716      C4726   1.288       .  A
O4717     Cd4718   2.075       .  S
Cd4718     O4720   2.156       .  S
O4719      C4726   1.284       .  A
C4721      O4725   1.286       .  A
C4727      O4728   1.292       .  A
C4729      C4730   1.410       .  A
C4729      C4734   1.400       .  A
C4729      H4739   1.084       .  S
C4730      C4731   1.415       .  A
C4730      C4735   1.481       .  S
C4731      C4732   1.385       .  A
C4731      O4736   1.372       .  S
C4732      C4733   1.394       .  A
C4732      H4737   1.082       .  S
C4733      C4734   1.405       .  A
C4734      O4738   1.369       .  S
C4735      C4740   1.409       .  A
C4735      C4744   1.403       .  A
O4736      H4752   0.992       .  S
O4738      H4749   0.992       .  S
C4740      O4745   1.370       .  S
C4741      C4742   1.394       .  A
C4741      H4746   1.059       .  S
C4742      C4743   1.396       .  A
C4743      O4747   1.369       .  S
C4744      H4748   1.082       .  S
O4745      H4750   0.992   1_556  S
O4747      H4751   0.991       .  S
C4753      C4754   1.404       .  A
C4753      C4758   1.400       .  A
C4753      H4763   1.079       .  S
C4754      C4755   1.398       .  A
C4754      C4759   1.471       .  S
C4755      C4756   1.393       .  A
C4755      O4760   1.366       .  S
C4756      C4757   1.402       .  A
C4756      H4761   1.080       .  S
C4757      C4758   1.406       .  A
C4758      O4762   1.369       .  S
C4759      C4764   1.410       .  A
C4759      C4768   1.408       .  A
O4760      H4776   0.992       .  S
O4762      H4773   0.992       .  S
C4764      C4765   1.390       .  A
C4764      O4769   1.376       .  S
C4765      C4766   1.395       .  A
C4765      H4770   1.083       .  S
C4766      C4767   1.392       .  A
C4767      C4768   1.409       .  A
C4767      O4771   1.377       .  S
C4768      H4772   1.084       .  S
O4769      H4774   0.992       .  S
O4771      H4775   0.991       .  S
C4777      C4778   1.404       .  A
C4777      H4787   1.082       .  S
C4778      C4779   1.409   1_655  A
C4778      C4783   1.486       .  S
C4779      C4780   1.397       .  A
C4779      O4784   1.370       .  S
C4780      H4785   1.071       .  S
C4781      C4782   1.419       .  A
C4782      O4786   1.371       .  S
C4783      C4788   1.411       .  A
C4783      C4792   1.403       .  A
O4784      H4800   0.991       .  S
O4786      H4797   0.989       .  S
C4788      C4789   1.392       .  A
C4788      O4793   1.361       .  S
C4789      C4790   1.392       .  A
C4789      H4794   1.084       .  S
C4790      C4791   1.403       .  A
C4791      C4792   1.392       .  A
C4791      O4795   1.372       .  S
C4792      H4796   1.074       .  S
O4793      H4798   0.992       .  S
O4795      H4799   0.992       .  S
C4801      C4802   1.402       .  A
C4801      C4806   1.393       .  A
C4801      H4811   1.085       .  S
C4802      C4803   1.401       .  A
C4803      C4804   1.396       .  A
C4804      C4805   1.408       .  A
C4804      H4809   1.084       .  S
C4805      C4806   1.400       .  A
C4806      O4810   1.365       .  S
C4807      C4812   1.395   1_545  A
C4807      C4816   1.408   1_545  A
O4808      H4824   0.991   1_556  S
O4810      H4821   0.991       .  S
C4812      C4813   1.388       .  A
C4812      O4817   1.357   1_556  S
C4813      C4814   1.394       .  A
C4813      H4818   1.084       .  S
C4814      C4815   1.404       .  A
C4815      C4816   1.391       .  A
C4815      O4819   1.378       .  S
C4816      H4820   1.082   1_565  S
O4817      H4822   0.985       .  S
O4819      H4823   0.990       .  S
C4825      C4826   1.410       .  A
C4825      H4835   1.077       .  S
C4826      C4831   1.490       .  S
C4827      C4828   1.389       .  A
C4827      O4832   1.364       .  S
C4828      C4829   1.389       .  A
C4828      H4833   1.064       .  S
C4829      C4830   1.406       .  A
C4830      O4834   1.371       .  S
C4831      C4836   1.427       .  A
C4831      C4840   1.403       .  A
O4832      H4848   0.988       .  S
O4834      H4845   0.991       .  S
C4836      C4837   1.390       .  A
C4836      O4841   1.371       .  S
C4837      C4838   1.393       .  A
C4837      H4842   1.083       .  S
C4838      C4839   1.402       .  A
C4839      C4840   1.389       .  A
C4839      O4843   1.367       .  S
C4840      H4844   1.080       .  S
O4841      H4846   0.993       .  S
O4843      H4847   0.992       .  S
C4849      C4850   1.400       .  A
C4849      C4854   1.395       .  A
C4849      H4859   1.076       .  S
C4850      C4851   1.398       .  A
C4850      C4855   1.474       .  S
C4851      C4852   1.395       .  A
C4851      O4856   1.362       .  S
C4852      C4853   1.401       .  A
C4852      H4857   1.084       .  S
C4853      C4854   1.399       .  A
C4854      O4858   1.373       .  S
C4855      C4860   1.408       .  A
C4855      C4864   1.405       .  A
O4856      H4872   0.988       .  S
O4858      H4869   0.991       .  S
C4860      C4861   1.402       .  A
C4860      O4865   1.372       .  S
C4861      C4862   1.406       .  A
C4861      H4866   1.082       .  S
C4862      C4863   1.398       .  A
C4863      C4864   1.380       .  A
C4863      O4867   1.375       .  S
C4864      H4868   1.082       .  S
O4865      H4870   0.991       .  S
O4867      H4871   0.991       .  S
C4873      C4874   1.393       .  A
C4873      C4878   1.389       .  A
C4873      H4883   1.079       .  S
C4874      C4875   1.409       .  A
C4874      C4879   1.451       .  S
C4876      H4881   1.076       .  S
C4877      C4878   1.406   1_455  A
C4879      C4884   1.398       .  A
C4879      C4888   1.400   1_655  A
O4880      H4896   0.992       .  S
O4882      H4893   0.989   1_665  S
C4884      C4885   1.389       .  A
C4884      O4889   1.370       .  S
C4885      C4886   1.409       .  A
C4885      H4890   1.084       .  S
C4886      C4887   1.398   1_655  A
C4887      C4888   1.390       .  A
O4889      H4894   0.992       .  S
O4891      H4895   0.993       .  S
C4897      C4898   1.411       .  A
C4897      C4902   1.395       .  A
C4897      H4907   1.085       .  S
C4898      C4903   1.462       .  S
C4899      C4900   1.399       .  A
C4899      O4904   1.369       .  S
C4900      H4905   1.084       .  S
C4901      C4902   1.399       .  A
C4902      O4906   1.373       .  S
C4903      C4908   1.396       .  A
C4903      C4912   1.401       .  A
O4904      H4920   0.992       .  S
O4906      H4917   0.992       .  S
C4908      C4909   1.396       .  A
C4908      O4913   1.372       .  S
C4909      C4910   1.413       .  A
C4909      H4914   1.077       .  S
C4910      C4911   1.408       .  A
C4911      C4912   1.381       .  A
O4913      H4918   0.991       .  S
O4915      H4919   0.992       .  S
C4921      C4922   1.389       .  A
C4921      C4926   1.387       .  A
C4921      H4931   1.082       .  S
C4922      C4923   1.407       .  A
C4922      C4927   1.447       .  S
C4923      C4924   1.391       .  A
C4923      O4928   1.373       .  S
C4924      C4925   1.393       .  A
C4924      H4929   1.080       .  S
C4925      C4926   1.415       .  A
C4926      O4930   1.371       .  S
C4927      C4932   1.399       .  A
C4927      C4936   1.398       .  A
O4928      H4944   0.991       .  S
O4930      H4941   0.990       .  S
C4932      C4933   1.383       .  A
C4932      O4937   1.371       .  S
C4933      C4934   1.403       .  A
C4933      H4938   1.082       .  S
C4934      C4935   1.406       .  A
C4935      C4936   1.388       .  A
C4935      O4939   1.368       .  S
C4936      H4940   1.084       .  S
O4937      H4942   0.991       .  S
O4939      H4943   0.989       .  S
C4945      C4946   1.401       .  A
C4945      C4950   1.394       .  A
C4945      H4955   1.083       .  S
C4946      C4947   1.400       .  A
C4946      C4951   1.463       .  S
C4947      C4948   1.392       .  A
C4947      O4952   1.372       .  S
C4948      C4949   1.411       .  A
C4948      H4953   1.084       .  S
C4949      C4950   1.397       .  A
C4950      O4954   1.373       .  S
C4951      C4956   1.393       .  A
C4951      C4960   1.399       .  A
O4952      H4968   0.991       .  S
O4954      H4965   0.992       .  S
C4956      C4957   1.386       .  A
C4956      O4961   1.367       .  S
C4957      C4958   1.399       .  A
C4957      H4962   1.083       .  S
C4958      C4959   1.399       .  A
C4959      C4960   1.397       .  A
C4959      O4963   1.366       .  S
C4960      H4964   1.074       .  S
O4961      H4966   0.990       .  S
O4963      H4967   0.987       .  S
C4969      C4970   1.401   1_565  A
C4969      C4974   1.391       .  A
C4970      C4971   1.408       .  A
C4970      C4975   1.469       .  S
C4971      C4972   1.395   1_545  A
C4971      O4976   1.372       .  S
C4972      C4973   1.399       .  A
C4972      H4977   1.083       .  S
C4973      C4974   1.405       .  A
C4975      C4980   1.413       .  A
C4975      C4984   1.408   1_545  A
O4976      H4992   0.992       .  S
O4978      H4989   0.992       .  S
C4980      C4981   1.385       .  A
C4981      C4982   1.405   1_545  A
C4982      C4983   1.400       .  A
C4983      C4984   1.400       .  A
C4983      O4987   1.376       .  S
C4984      H4988   1.084       .  S
O4985      H4990   0.990       .  S
O4987      H4991   0.992       .  S
C4993      C4994   1.408       .  A
C4993      C4998   1.398       .  A
C4993      H5003   1.083       .  S
C4994      C4995   1.398       .  A
C4994      C4999   1.466       .  S
C4995      C4996   1.385       .  A
C4995      O5000   1.365       .  S
C4996      C4997   1.400       .  A
C4996      H5001   1.085       .  S
C4997      C4998   1.401       .  A
C4998      O5002   1.373       .  S
C4999      C5004   1.400       .  A
C4999      C5008   1.405       .  A
O5000      H5016   0.992       .  S
O5002      H5013   0.992       .  S
C5004      C5005   1.390       .  A
C5004      O5009   1.372       .  S
C5005      C5006   1.407       .  A
C5005      H5010   1.082       .  S
C5006      C5007   1.400       .  A
C5007      C5008   1.399       .  A
C5007      O5011   1.371       .  S
C5008      H5012   1.084       .  S
O5009      H5014   0.992       .  S
O5011      H5015   0.992   1_565  S
C5017      C5018   1.408       .  A
C5017      C5022   1.399       .  A
C5017      H5027   1.082       .  S
C5018      C5019   1.406       .  A
C5018      C5023   1.514       .  S
C5019      C5020   1.394       .  A
C5019      O5024   1.365       .  S
C5020      C5021   1.400       .  A
C5020      H5025   1.082       .  S
C5021      C5022   1.406       .  A
C5022      O5026   1.371       .  S
C5023      C5028   1.424       .  A
C5023      C5032   1.420       .  A
O5024      H5040   0.991       .  S
O5026      H5037   0.992       .  S
C5028      C5029   1.389       .  A
C5028      O5033   1.368       .  S
C5029      C5030   1.396       .  A
C5029      H5034   1.085       .  S
C5030      C5031   1.399       .  A
C5031      C5032   1.402       .  A
C5031      O5035   1.374       .  S
C5032      H5036   1.075       .  S
O5035      H5039   0.991       .  S
C5041      C5042   1.397       .  A
C5041      H5051   1.076       .  S
C5042      C5043   1.402       .  A
C5042      C5047   1.461       .  S
C5043      O5048   1.371       .  S
C5044      C5045   1.403       .  A
C5044      H5049   1.083       .  S
C5045      C5046   1.394       .  A
C5046      O5050   1.368       .  S
C5047      C5052   1.403       .  A
C5047      C5056   1.405       .  A
O5048      H5064   0.991       .  S
O5050      H5061   0.988       .  S
C5052      C5053   1.394       .  A
C5052      O5057   1.372       .  S
C5053      C5054   1.403       .  A
C5053      H5058   1.083       .  S
C5054      C5055   1.396       .  A
C5055      C5056   1.390       .  A
C5055      O5059   1.367       .  S
C5056      H5060   1.084       .  S
O5057      H5062   0.991       .  S
O5059      H5063   0.992       .  S
C5065      C5066   1.410       .  A
C5065      C5070   1.398       .  A
C5065      H5075   1.083       .  S
C5066      C5067   1.417       .  A
C5066      C5071   1.493       .  S
C5067      C5068   1.390       .  A
C5067      O5072   1.370       .  S
C5068      C5069   1.395       .  A
C5068      H5073   1.084       .  S
C5069      C5070   1.398       .  A
C5070      O5074   1.370       .  S
C5071      C5076   1.418       .  A
C5071      C5080   1.408       .  A
O5072      H5088   0.989       .  S
O5074      H5085   0.992       .  S
C5076      C5077   1.389       .  A
C5076      O5081   1.371       .  S
C5077      C5078   1.390       .  A
C5077      H5082   1.079       .  S
C5078      C5079   1.402       .  A
C5079      C5080   1.400       .  A
C5079      O5083   1.371       .  S
C5080      H5084   1.081       .  S
O5081      H5086   0.992       .  S
C5089      C5090   1.401       .  A
C5089      C5094   1.390       .  A
C5089      H5099   1.082       .  S
C5090      C5091   1.416       .  A
C5090      C5095   1.470       .  S
C5091      C5092   1.385       .  A
C5091      O5096   1.372       .  S
C5092      C5093   1.397       .  A
C5092      H5097   1.083       .  S
C5093      C5094   1.403       .  A
C5095      C5100   1.404       .  A
C5095      C5104   1.402       .  A
O5096      H5112   0.992       .  S
O5098      H5109   0.992       .  S
C5100      C5101   1.396       .  A
C5100      O5105   1.370       .  S
C5101      C5102   1.397       .  A
C5101      H5106   1.071       .  S
C5102      C5103   1.398       .  A
C5103      C5104   1.387       .  A
C5103      O5107   1.374       .  S
C5104      H5108   1.083       .  S
O5105      H5110   0.991       .  S
O5107      H5111   0.992       .  S
C5113      C5114   1.413       .  A
C5113      C5118   1.400       .  A
C5113      H5123   1.082       .  S
C5114      C5115   1.405       .  A
C5114      C5119   1.505       .  S
C5115      C5116   1.398       .  A
C5115      O5120   1.368       .  S
C5116      C5117   1.401       .  A
C5116      H5121   1.078       .  S
C5117      C5118   1.414       .  A
C5118      O5122   1.372       .  S
C5119      C5124   1.407       .  A
C5119      C5128   1.401       .  A
O5120      H5136   0.991       .  S
O5122      H5133   0.992       .  S
C5124      C5125   1.398       .  A
C5124      O5129   1.368       .  S
C5125      C5126   1.399       .  A
C5125      H5130   1.079       .  S
C5126      C5127   1.400       .  A
C5127      C5128   1.400       .  A
C5127      O5131   1.367       .  S
C5128      H5132   1.072       .  S
O5129      H5134   0.991       .  S
O5131      H5135   0.992       .  S
C5137      C5138   1.396       .  A
C5137      C5142   1.391       .  A
C5137      H5147   1.079       .  S
C5138      C5139   1.403       .  A
C5138      C5143   1.481       .  S
C5139      C5140   1.406       .  A
C5139      O5144   1.371       .  S
C5140      C5141   1.407       .  A
C5140      H5145   1.068   1_565  S
C5141      C5142   1.427       .  A
C5142      O5146   1.370       .  S
C5143      C5148   1.410       .  A
C5143      C5152   1.404       .  A
O5144      H5160   0.990       .  S
O5146      H5157   0.990       .  S
C5148      C5149   1.394       .  A
C5148      O5153   1.370       .  S
C5149      C5150   1.400       .  A
C5149      H5154   1.084       .  S
C5150      C5151   1.400       .  A
C5151      C5152   1.400       .  A
C5151      O5155   1.364       .  S
C5152      H5156   1.083       .  S
O5153      H5158   0.992       .  S
O5155      H5159   0.989       .  S
