geometry optimzed in LAMMPS
_audit_creation_date              2020-11-30 
_audit_creation_method            'lammps2cif' 
_symmetry_space_group_name_H-M    'P1' 
_symmetry_Int_Tables_number       1 
_symmetry_cell_setting            triclinic 
loop_ 
_symmetry_equiv_pos_as_xyz 
  x,y,z 
_cell_length_a                    32.43634789 
_cell_length_b                    32.919084521533776 
_cell_length_c                    30.73537913200585 
_cell_angle_alpha                 90.60281379289441 
_cell_angle_beta                  88.9244522255862 
_cell_angle_gamma                 90.72268607244462 
loop_ 
_atom_site_label 
_atom_site_type_symbol 
_atom_site_fract_x 
_atom_site_fract_y 
_atom_site_fract_z 
_atom_site_charge 
C1          C  0.54195898  0.02510678  0.95136210     0.02100
C2          C  0.53836202  0.98125505  0.30102042     0.02000
C3          C  0.50043587  0.96192965  0.30856660    -0.18500
C4          C  0.46383381  0.98347884  0.30553173     0.02100
C5          C  0.46747109  0.02837485  0.95735494     0.02000
C6          C  0.50562774  0.04743316  0.94993022    -0.18500
H7          H  0.50706401  0.07956277  0.94254848     0.04100
H8          H  0.49931840  0.92950138  0.31445416     0.04100
C9          C  0.82556927  0.87276779  0.27776409     0.86300
C10         C  0.83530351  0.82766312  0.28027481    -0.54000
C11         C  0.87619997  0.81937551  0.28297201     0.09200
C12         C  0.90466648  0.85743129  0.28174463     0.20100
C13         C  0.84726958  0.89293050  0.31649549    -0.54700
C14         C  0.88832005  0.88483300  0.31885621     0.09300
C15         C  0.85135249  0.88766044  0.23832503    -0.54200
C16         C  0.89261408  0.88055126  0.24072523     0.09900
H17         H  0.81157692  0.80406348  0.28111477     0.14400
H18         H  0.93811385  0.85099704  0.28363505     0.00100
H19         H  0.83145596  0.91281867  0.33959911     0.14700
H20         H  0.83986890  0.90539169  0.21193361     0.14500
C21         C  0.92141490  0.90354883  0.21231170     0.42200
N22         N  0.93825732  0.94622022  0.16270126     0.01100
C23         C  0.11077522  0.94665519  0.02663283    -0.06800
H24         H  0.14329446  0.96429132  0.19002253     0.06600
C25         C  0.05854295  0.10279256  0.18103758    -0.07100
Co26       Co  0.01185821  0.92149000  0.11029204     0.74200
N27         N  0.08715303  0.95514117  0.15374631    -0.26300
Co28       Co  0.08444907  0.00058545  0.10610486     0.74100
C29         C  0.09790331  0.09328187  0.19951348     0.42300
N30         N  0.96058489  0.06681899  0.16014578     0.00700
N31         N  0.08253388  0.04717494  0.15296825     0.00800
N32         N  0.06248018  0.89652493  0.03145223    -0.46300
H33         H  0.97751615  0.86345703  0.19587848     0.06600
N34         N  0.05914460  0.92559024  0.15419413     0.01100
N35         N  0.07910368  0.04503545  0.05772449     0.00900
C36         C  0.08685973  0.08748052  0.33979998     0.42500
N37         N  0.93353877  0.03665055  0.16287672    -0.25700
C38         C  0.95508196  0.89145033  0.03439728    -0.06700
N39         N  0.90992379  0.93785825  0.19263424    -0.46800
N40         N  0.10559276  0.05454358  0.02566062    -0.47100
C41         C  0.91414553  0.90466613  0.35188073     0.42200
N42         N  0.05584549  0.92518798  0.06086330     0.01100
N43         N  0.92873092  0.03451201  0.06843734    -0.25800
N44         N  0.96771044  0.91899912  0.16060233    -0.26300
N45         N  0.95612189  0.06430911  0.06635502     0.00800
H46         H  0.87144658  0.02222934  0.36725935     0.06600
H47         H  0.02835472  0.12303899  0.35817517     0.06700
N48         N  0.08390929  0.95459051  0.05929426    -0.26300
N49         N  0.05159587  0.07283665  0.15271267    -0.25900
N50         N  0.93350898  0.94491681  0.06894894     0.01100
C51         C  0.10176103  0.90789615  0.20239377     0.42500
C52         C  0.90734151  0.04424080  0.19618621    -0.07200
N53         N  0.04720567  0.06952380  0.05942034    -0.25900
H54         H  0.03909194  0.12885114  0.18653176     0.06700
N55         N  0.06694242  0.89692201  0.18229825    -0.47100
H56         H  0.88065111  0.02591603  0.20508786     0.06700
C57         C  0.90998053  0.08007044  0.35309227     0.42400
C58         C  0.96005097  0.89079091  0.19129827    -0.06700
Co59       Co  0.93294247  0.99046015  0.11589704     0.73800
N60         N  0.95388651  0.09577911  0.18951527    -0.46900
C61         C  0.09287100  0.90816588  0.34313056     0.42600
N62         N  0.90355534  0.93697179  0.04150191    -0.46800
Co63       Co  0.00388257  0.06877665  0.10961652     0.73900
C64         C  0.05052883  0.09609513  0.02720442    -0.07200
C65         C  0.11548630  0.94683763  0.18393240    -0.06700
N66         N  0.96383105  0.91865001  0.06595810    -0.26300
N67         N  0.11140084  0.05828142  0.18101237    -0.47000
H68         H  0.13433003  0.96484818  0.35190947     0.06600
C69         C  0.89934918  0.04110115  0.03921066    -0.07100
Cl70       Cl  0.00833785  0.99530590  0.11060434    -0.50100
C71         C  0.92100602  0.08347743  0.21362703     0.42400
H72         H  0.97202515  0.86577524  0.36034599     0.06600
N73         N  0.94659499  0.09222290  0.03795544    -0.46900
C74         C  0.88101951  0.17037158  0.28688119     0.86300
C75         C  0.89040753  0.14692231  0.32814938    -0.54000
C76         C  0.88663705  0.10589994  0.32407333     0.09200
C77         C  0.86903464  0.09168162  0.28032972     0.20100
C78         C  0.90642901  0.14979254  0.25026341    -0.54700
C79         C  0.89990831  0.10882456  0.24667032     0.09300
C80         C  0.83605616  0.15776639  0.27796072    -0.54200
C81         C  0.82960132  0.11674443  0.27450635     0.09900
H82         H  0.90226028  0.16132369  0.35738771     0.14400
H83         H  0.86438620  0.05829717  0.27765509     0.00100
H84         H  0.92763784  0.16638451  0.22898736     0.14700
H85         H  0.81050323  0.17849815  0.27664862     0.14500
C86         C  0.12539721  0.81746496  0.27337338     0.86300
C87         C  0.10531348  0.84074241  0.31139641    -0.54000
C88         C  0.11347560  0.88136731  0.31171691     0.09200
C89         C  0.14283009  0.89548877  0.27510953     0.20100
C90         C  0.11308036  0.84015127  0.23247872    -0.54700
C91         C  0.12136052  0.88096399  0.23356626     0.09300
C92         C  0.17147562  0.82731317  0.27831603    -0.54200
C93         C  0.18048434  0.86787229  0.27895736     0.09900
H94         H  0.08545579  0.82624306  0.33567466     0.14400
H95         H  0.15001593  0.92857196  0.27588151     0.00100
H96         H  0.09655243  0.82545469  0.20608820     0.14700
H97         H  0.19543826  0.80535522  0.28314539     0.14500
C98         C  0.12301220  0.18074348  0.27595308     0.86300
C99         C  0.11277115  0.15992097  0.23245304    -0.54000
C100        C  0.11895501  0.11901646  0.23158177     0.09200
C101        C  0.13917972  0.10290005  0.27241153     0.20100
C102        C  0.10098677  0.15580022  0.31093597    -0.54700
C103        C  0.10916953  0.11530247  0.30973685     0.09300
C104        C  0.16875700  0.17096504  0.28124890    -0.54200
C105        C  0.17796974  0.13064781  0.27708241     0.09900
H106        H  0.10088136  0.17555310  0.20462936     0.14400
H107        H  0.14478923  0.06976820  0.27041831     0.00100
H108        H  0.08014314  0.16957304  0.33473215     0.14700
H109        H  0.19229194  0.19410185  0.28578949     0.14500
C110        C  0.01585159  0.53648158  0.99221891     0.02100
C111        C  0.97249331  0.53573900  0.99757044     0.02000
C112        C  0.95152517  0.49833786  0.99947269    -0.18500
C113        C  0.97348309  0.46200887  0.99668260     0.02100
C114        C  0.01711881  0.46312311  0.99599649     0.02000
C115        C  0.03788417  0.50045209  0.99363919    -0.18500
H116        H  0.07121615  0.50130858  0.99010114     0.04100
H117        H  0.91810067  0.49751450  0.00050754     0.04100
C118        C  0.05857363  0.35850398  0.01790177    -0.11600
C119        C  0.07738006  0.34946631  0.30602056     0.14900
C120        C  0.08147609  0.37978152  0.27417710     0.01800
C121        C  0.06240758  0.41706272  0.28122095    -0.16000
C122        C  0.04004199  0.42492098  0.31983571    -0.10800
C123        C  0.04115681  0.39645095  0.02609922     0.08600
C124        C  0.09039018  0.30755656  0.29721829     0.09600
S125        S  0.10936566  0.37213605  0.22349416    -0.25100
H126        H  0.06387941  0.43967561  0.25583539     0.19800
S127        S  0.01971151  0.40591182  0.07978261    -0.30800
H128        H  0.05641652  0.33529499  0.04262797     0.10200
C129        C  0.12463279  0.29102455  0.31735009     0.03400
C130        C  0.13448248  0.25038141  0.30928752    -0.13100
C131        C  0.11139326  0.22561221  0.28052418    -0.08800
C132        C  0.07497882  0.24245713  0.26274381     0.06800
C133        C  0.06606900  0.28331984  0.27018330    -0.13800
S134        S  0.15555239  0.32164313  0.35371080    -0.30800
H135        H  0.15952437  0.23775933  0.32714803     0.11100
S136        S  0.03608420  0.21471179  0.23291448    -0.27900
H137        H  0.03865049  0.29607054  0.25628157     0.08300
H138        H  0.02342090  0.44847561  0.07860860     0.26700
H139        H  0.18709782  0.29328764  0.35904701     0.21500
H140        H  0.03765049  0.17941954  0.25804069     0.26800
H141        H  0.13738004  0.34390934  0.23944460     0.15700
C142        C  0.05118943  0.62867510  0.25836654    -0.11600
C143        C  0.07081282  0.65020053  0.29173592     0.14900
C144        C  0.07733509  0.63347099  0.00334044     0.01800
C145        C  0.06031473  0.59513930  0.01186066    -0.16000
C146        C  0.03633653  0.57336351  0.30768308    -0.10800
C147        C  0.03428446  0.59020742  0.26571904     0.08600
C148        C  0.08564377  0.69154857  0.28266574     0.09600
S149        S  0.10226198  0.65988318  0.04757339    -0.25100
H150        H  0.06275315  0.58247069  0.04409654     0.19800
S151        S  0.01030742  0.56454191  0.22038072    -0.30800
H152        H  0.04886346  0.64210684  0.22646302     0.10200
C153        C  0.12777253  0.70069769  0.27743156     0.03400
C154        C  0.14033440  0.74118883  0.27231750    -0.13100
C155        C  0.11146891  0.77296017  0.27267178    -0.08800
C156        C  0.06871785  0.76256972  0.27404541     0.06800
C157        C  0.05650787  0.72211929  0.27942592    -0.13800
S158        S  0.16815896  0.66045711  0.94676281    -0.30800
H159        H  0.17276660  0.74723155  0.26802078     0.11100
S160        S  0.02873787  0.80009637  0.26948504    -0.27900
H161        H  0.02401771  0.71419576  0.28174233     0.08300
H162        H  0.01669348  0.52478287  0.23469524     0.26700
H163        H  0.20317266  0.68497412  0.93834684     0.21500
H164        H  0.99778073  0.77756869  0.29136791     0.26800
H165        H  0.09248576  0.69939018  0.03471332     0.15700
C166        C  0.93761096  0.27130750  0.31264461    -0.11600
C167        C  0.90815709  0.29981941  0.30172563     0.14900
C168        C  0.87075391  0.28682907  0.28360402     0.01800
C169        C  0.86287734  0.24530980  0.27815328    -0.16000
C170        C  0.89130761  0.21583268  0.29113946    -0.10800
C171        C  0.93015631  0.22964864  0.30701462     0.08600
C172        C  0.91916649  0.34302761  0.30651708     0.09600
S173        S  0.83234418  0.32176655  0.26557614    -0.25100
H174        H  0.83448251  0.23683062  0.26268090     0.19800
S175        S  0.97227747  0.19603141  0.99070493    -0.30800
H176        H  0.96722450  0.28272895  0.99797916     0.10200
C177        C  0.91730125  0.36349182  0.01973375     0.03400
C178        C  0.93221862  0.40343904  0.02433786    -0.13100
C179        C  0.94949445  0.42260493  0.31543117    -0.08800
C180        C  0.95072912  0.40303886  0.27431605     0.06800
C181        C  0.93600912  0.36324306  0.27043395    -0.13800
S182        S  0.89575020  0.33700000  0.06617555    -0.30800
H183        H  0.93120039  0.41842910  0.05585270     0.11100
S184        S  0.97147535  0.42687934  0.22590641    -0.27900
H185        H  0.93834602  0.34761085  0.23928294     0.08300
H186        H  0.00069550  0.22441986  0.33277022     0.26700
H187        H  0.90382932  0.36771427  0.09714315     0.21500
H188        H  0.96193355  0.46687173  0.23851092     0.26800
H189        H  0.84087767  0.35278145  0.29596803     0.15700
C190        C  0.93972548  0.64322324  0.02239874    -0.11600
C191        C  0.91810395  0.65215041  0.31226499     0.14900
C192        C  0.91058334  0.62185215  0.28034264     0.01800
C193        C  0.92562440  0.58271592  0.28613703    -0.16000
C194        C  0.94718487  0.57291120  0.32359324    -0.10800
C195        C  0.95328313  0.60381661  0.02983994     0.08600
C196        C  0.90778136  0.69529526  0.30552345     0.09600
S197        S  0.88283452  0.63136019  0.23125755    -0.25100
H198        H  0.92192152  0.56016798  0.26050961     0.19800
S199        S  0.97608506  0.59363165  0.08164905    -0.30800
H200        H  0.94500182  0.66665121  0.04677362     0.10200
C201        C  0.88006979  0.71577657  0.33369326     0.03400
C202        C  0.87196575  0.75679287  0.32659847    -0.13100
C203        C  0.88978925  0.77746890  0.29105595    -0.08800
C204        C  0.91650020  0.75673955  0.26214082     0.06800
C205        C  0.92610744  0.71610898  0.27029938    -0.13800
S206        S  0.85317193  0.68926008  0.37716713    -0.30800
H207        H  0.85078891  0.77273999  0.34820148     0.11100
S208        S  0.93546627  0.78070124  0.21303123    -0.27900
H209        H  0.94709235  0.70004193  0.24859948     0.08300
H210        H  0.96863013  0.55146486  0.08097366     0.26700
H211        H  0.82785101  0.72156900  0.39070519     0.21500
H212        H  0.96114471  0.74885421  0.19896271     0.26800
H213        H  0.85724186  0.66150461  0.24944037     0.15700
C214        C  0.29459266  0.12898443  0.25844824    -0.11600
C215        C  0.30381551  0.09045154  0.27387613     0.14900
C216        C  0.27131183  0.06330475  0.28409207     0.01800
C217        C  0.23072817  0.07713937  0.28597476    -0.16000
C218        C  0.22129506  0.11635537  0.27226052    -0.10800
C219        C  0.25370679  0.14080211  0.25407273     0.08600
C220        C  0.34729310  0.07893172  0.28000398     0.09600
S221        S  0.28132880  0.01033265  0.29116716    -0.25100
H222        H  0.20658897  0.05708666  0.29805123     0.19800
S223        S  0.24567285  0.18427358  0.22007321    -0.30800
H224        H  0.31931876  0.14925540  0.24793760     0.10200
C225        C  0.37636114  0.07785381  0.24528866     0.03400
C226        C  0.41620065  0.06389942  0.25291073    -0.13100
C227        C  0.42685808  0.04935732  0.29390121    -0.08800
C228        C  0.40192921  0.05595329  0.99089727     0.06800
C229        C  0.36239526  0.07072266  0.98459512    -0.13800
S230        S  0.36196155  0.09047699  0.19059056    -0.30800
H231        H  0.43823712  0.06138557  0.22615084     0.11100
S232        S  0.41532568  0.04159738  0.04528574    -0.27900
H233        H  0.34094309  0.07227314  0.01201796     0.08300
H234        H  0.20889806  0.16890795  0.20227245     0.26700
H235        H  0.40075640  0.08401389  0.17066387     0.21500
H236        H  0.45813670  0.04724598  0.03970619     0.26800
H237        H  0.23994406  0.99698927  0.29089122     0.15700
C238        C  0.36201207  0.94105797  0.26889270    -0.11600
C239        C  0.34652440  0.92265685  0.30699063     0.14900
C240        C  0.37539947  0.92157806  0.00268575     0.01800
C241        C  0.41316617  0.94255580  0.00181232    -0.16000
C242        C  0.42470264  0.96033244  0.30496298    -0.10800
C243        C  0.40157508  0.95746889  0.26675031     0.08600
C244        C  0.30433273  0.90506002  0.30506403     0.09600
S245        S  0.36427933  0.88967173  0.04893740    -0.25100
H246        H  0.43261005  0.94212399  0.03009423     0.19800
S247        S  0.42155883  0.97171404  0.21375121    -0.30800
H248        H  0.34349381  0.94153825  0.23990638     0.10200
C249        C  0.27152749  0.91818892  0.33264208     0.03400
C250        C  0.23098575  0.90662171  0.32260143    -0.13100
C251        C  0.22278640  0.88259317  0.28579721    -0.08800
C252        C  0.25553231  0.86916258  0.25882739     0.06800
C253        C  0.29576377  0.87951353  0.26942408    -0.13800
S254        S  0.28442877  0.95170517  0.04078200    -0.30800
H255        H  0.20554437  0.91601704  0.34352828     0.11100
S256        S  0.24793065  0.84044217  0.20919522    -0.27900
H257        H  0.32067834  0.86942569  0.24808666     0.08300
H258        H  0.46330693  0.96522409  0.22262367     0.26700
H259        H  0.24336437  0.95384625  0.05608249     0.21500
H260        H  0.21003932  0.85807771  0.19914907     0.26800
H261        H  0.33699481  0.86298471  0.02759248     0.15700
C262        C  0.71207740  0.87989535  0.31650862    -0.11600
C263        C  0.69480584  0.90285260  0.28356391     0.14900
C264        C  0.71964651  0.91429017  0.24757942     0.01800
C265        C  0.76044240  0.90190373  0.24467601    -0.16000
C266        C  0.77910151  0.88094625  0.27873895    -0.10800
C267        C  0.75383950  0.86943132  0.31509140     0.08600
C268        C  0.65233119  0.91798936  0.28997599     0.09600
S269        S  0.70258790  0.94770700  0.20582904    -0.25100
H270        H  0.77720474  0.91094321  0.21587107     0.19800
S271        S  0.77306606  0.83996750  0.02440749    -0.30800
H272        H  0.69221228  0.86948910  0.00651524     0.10200
C273        C  0.62084755  0.91034744  0.25974389     0.03400
C274        C  0.58329982  0.93062941  0.26474680    -0.13100
C275        C  0.57604557  0.95660182  0.30046274    -0.08800
C276        C  0.60575730  0.96030680  0.33317951     0.06800
C277        C  0.64397481  0.94206796  0.32693372    -0.13800
S278        S  0.62805753  0.87449913  0.21540573    -0.30800
H279        H  0.55972154  0.92692121  0.24048926     0.11100
S280        S  0.59729480  0.98790881  0.04529754    -0.27900
H281        H  0.66758319  0.94694049  0.35100249     0.08300
H282        H  0.73959993  0.84635384  0.38885737     0.26700
H283        H  0.58917677  0.87939380  0.19676062     0.21500
H284        H  0.55405668  0.98483034  0.04463925     0.26800
H285        H  0.67990001  0.97245542  0.23477607     0.15700
C286        C  0.63994996  0.08161930  0.29796582    -0.11600
C287        C  0.65963954  0.06944122  0.25902323     0.14900
C288        C  0.63709662  0.04748763  0.22749833     0.01800
C289        C  0.59713173  0.03408427  0.23811732    -0.16000
C290        C  0.57892581  0.04326377  0.27878431    -0.10800
C291        C  0.60188056  0.07106779  0.96979597     0.08600
C292        C  0.70448014  0.07686834  0.25565836     0.09600
S293        S  0.65671957  0.03558321  0.17352511    -0.25100
H294        H  0.58044193  0.01533827  0.21500328     0.19800
S295        S  0.57922689  0.08961919  0.02031432    -0.30800
H296        H  0.65905550  0.10100332  0.98412311     0.10200
C297        C  0.72169900  0.10831981  0.23033749     0.03400
C298        C  0.76350417  0.11854529  0.23490399    -0.13100
C299        C  0.78778009  0.09964915  0.26621642    -0.08800
C300        C  0.77010917  0.06786382  0.29116227     0.06800
C301        C  0.72931904  0.05591526  0.28444210    -0.13800
S302        S  0.68989044  0.13724027  0.19469300    -0.30800
H303        H  0.77687127  0.14280432  0.21553070     0.11100
S304        S  0.79516047  0.04531030  0.33635292    -0.27900
H305        H  0.71564385  0.03232013  0.30465587     0.08300
H306        H  0.54650011  0.06165746  0.02457100     0.26700
H307        H  0.72124737  0.16345380  0.17906193     0.21500
H308        H  0.80831917  0.08282859  0.35384323     0.26800
H309        H  0.69889248  0.03985957  0.18206734     0.15700
C310        C  0.53967737  0.02296976  0.29054652     0.02100
C311        C  0.53566644  0.97710070  0.67406963     0.02000
C312        C  0.49749172  0.95742427  0.67941565    -0.18500
C313        C  0.46084550  0.97926302  0.67698192     0.02100
C314        C  0.46515646  0.02574175  0.29733155     0.02000
C315        C  0.50314857  0.04498363  0.28931222    -0.18500
H316        H  0.50427422  0.07700148  0.28138228     0.04100
H317        H  0.49622869  0.92456495  0.68149220     0.04100
C318        C  0.82354469  0.87529546  0.61831821     0.86300
C319        C  0.83287097  0.83004069  0.61547500    -0.54000
C320        C  0.87376017  0.82103485  0.61552146     0.09200
C321        C  0.90263845  0.85882516  0.61651265     0.20100
C322        C  0.84718520  0.89168834  0.65745462    -0.54700
C323        C  0.88827307  0.88358868  0.65659498     0.09300
C324        C  0.84767341  0.89313137  0.57897750    -0.54200
C325        C  0.88902620  0.88505042  0.57836537     0.09900
H326        H  0.80888121  0.80671569  0.61472222     0.14400
H327        H  0.93609779  0.85202491  0.61621495     0.00100
H328        H  0.83266836  0.91010239  0.68285012     0.14700
H329        H  0.83459354  0.91145944  0.55389904     0.14500
C330        C  0.91715630  0.90608956  0.54744362     0.42200
N331        N  0.93461192  0.94723917  0.49670827     0.01100
C332        C  0.10722383  0.94701209  0.36056646    -0.06800
H333        H  0.14287144  0.96487209  0.52100274     0.06600
C334        C  0.05830334  0.10243816  0.51643969    -0.07100
Co335      Co  0.00921404  0.92206883  0.44578053     0.74200
N336        N  0.08506718  0.95588036  0.48777573    -0.26300
Co337      Co  0.08179087  0.00090713  0.44011688     0.74100
C338        C  0.09847132  0.09234012  0.53319727     0.42300
N339        N  0.95752358  0.06724261  0.49513925     0.00700
N340        N  0.08072203  0.04697584  0.48693871     0.00800
N341        N  0.05954712  0.89642772  0.36671006    -0.46300
H342        H  0.97449099  0.86657037  0.53402499     0.06600
N343        N  0.05685057  0.92657148  0.48957975     0.01100
N344        N  0.07630894  0.04550556  0.39208384     0.00900
C345        C  0.08981839  0.08738505  0.67089475     0.42500
N346        N  0.93031198  0.03712738  0.49681921    -0.25700
C347        C  0.95360180  0.89190293  0.36900911    -0.06700
N348        N  0.90578407  0.93960083  0.52637709    -0.46800
N349        N  0.10269020  0.05484369  0.35988251    -0.47100
C350        C  0.91571450  0.90379679  0.68780591     0.42200
N351        N  0.05314161  0.92519699  0.39607392     0.01100
N352        N  0.92694547  0.03518914  0.40245189    -0.25800
N353        N  0.96442619  0.92036528  0.49602325    -0.26300
N354        N  0.95393203  0.06538252  0.40121042     0.00800
H355        H  0.87398616  0.02060367  0.70279878     0.06600
H356        H  0.03084184  0.12239007  0.68852446     0.06700
N357        N  0.08081045  0.95488887  0.39362554    -0.26300
N358        N  0.04990790  0.07283273  0.48803519    -0.25900
N359        N  0.93160565  0.94554434  0.40296660     0.01100
C360        C  0.10159803  0.90893418  0.53575336     0.42500
C361        C  0.90308229  0.04448389  0.52923975    -0.07200
N362        N  0.04499489  0.07068853  0.39459499    -0.25900
H363        H  0.03958011  0.12885009  0.52249414     0.06700
N364        N  0.06583213  0.89792594  0.51733292    -0.47100
H365        H  0.87611931  0.02612910  0.53707394     0.06700
C366        C  0.91128937  0.07870812  0.68611730     0.42400
C367        C  0.95652318  0.89321912  0.52776529    -0.06700
Co368      Co  0.93038108  0.99115716  0.44977088     0.73800
N369        N  0.94972088  0.09611185  0.52436393    -0.46900
C370        C  0.09519564  0.90852384  0.67470214     0.42600
N371        N  0.90241516  0.93789933  0.37456805    -0.46800
Co372      Co  0.00158126  0.06957917  0.44491050     0.73900
C373        C  0.04873350  0.09777247  0.36284976    -0.07200
C374        C  0.11461360  0.94765548  0.51658255    -0.06700
N375        N  0.96167481  0.91897341  0.40092396    -0.26300
N376        N  0.11078843  0.05753836  0.51368456    -0.47000
H377        H  0.13740806  0.96483863  0.68317695     0.06600
C378        C  0.89817461  0.04133732  0.37249611    -0.07100
Cl379      Cl  0.00579361  0.99592774  0.44533952    -0.50100
C380        C  0.91601088  0.08362421  0.54722767     0.42400
H381        H  0.97403874  0.86519287  0.69442680     0.06600
N382        N  0.94463870  0.09316981  0.37255527    -0.46900
C383        C  0.87655144  0.16903384  0.62236974     0.86300
C384        C  0.88939588  0.14554702  0.66253218    -0.54000
C385        C  0.88619008  0.10443702  0.65838988     0.09200
C386        C  0.86572276  0.09020522  0.61593747     0.20100
C387        C  0.89978814  0.14929759  0.58382866    -0.54700
C388        C  0.89418129  0.10830079  0.58039384     0.09300
C389        C  0.83131622  0.15563260  0.61726145    -0.54200
C390        C  0.82507246  0.11451998  0.61380047     0.09900
H391        H  0.90256363  0.16001277  0.69106522     0.14400
H392        H  0.86206717  0.05676868  0.61293546     0.00100
H393        H  0.91962299  0.16640132  0.56158625     0.14700
H394        H  0.80560274  0.17623575  0.61960576     0.14500
C395        C  0.12628431  0.81772656  0.60379816     0.86300
C396        C  0.10567935  0.84105821  0.64159980    -0.54000
C397        C  0.11470999  0.88157632  0.64263348     0.09200
C398        C  0.14478961  0.89546640  0.60672757     0.20100
C399        C  0.11525610  0.84087048  0.56285211    -0.54700
C400        C  0.12358835  0.88160058  0.56467383     0.09300
C401        C  0.17234769  0.82686022  0.61002417    -0.54200
C402        C  0.18198254  0.86727871  0.61150159     0.09900
H403        H  0.08521208  0.82663367  0.66536594     0.14400
H404        H  0.15249125  0.92843256  0.60797002     0.00100
H405        H  0.09852958  0.82670578  0.53627481     0.14700
H406        H  0.19554133  0.80451751  0.61649898     0.14500
C407        C  0.12615728  0.18028449  0.60614641     0.86300
C408        C  0.11697338  0.15903696  0.56274106    -0.54000
C409        C  0.12268078  0.11817195  0.56265474     0.09200
C410        C  0.14239789  0.10251332  0.60412605     0.20100
C411        C  0.10350819  0.15564430  0.64113347    -0.54700
C412        C  0.11182734  0.11514182  0.64062072     0.09300
C413        C  0.17179764  0.17067781  0.61295581    -0.54200
C414        C  0.18115262  0.13023459  0.61012448     0.09900
H415        H  0.10441478  0.17433458  0.53498549     0.14400
H416        H  0.14791178  0.06936975  0.60254217     0.00100
H417        H  0.08229439  0.16959640  0.66443201     0.14700
H418        H  0.19500773  0.19366186  0.61905873     0.14500
C419        C  0.01405306  0.53564061  0.31875681     0.02100
C420        C  0.97067857  0.53477627  0.32362948     0.02000
C421        C  0.94981630  0.49737056  0.32526033    -0.18500
C422        C  0.97194715  0.46116315  0.32279771     0.02100
C423        C  0.01557290  0.46238218  0.32255512     0.02000
C424        C  0.03622255  0.49973569  0.32030112    -0.18500
H425        H  0.06958757  0.50073262  0.31723607     0.04100
H426        H  0.91639090  0.49644224  0.32611823     0.04100
C427        C  0.05705941  0.35804649  0.34562539    -0.11600
C428        C  0.07535841  0.34882380  0.62372790     0.14900
C429        C  0.07567858  0.37617973  0.58876850     0.01800
C430        C  0.05607657  0.41338383  0.59396731    -0.16000
C431        C  0.03619330  0.42374866  0.63333365    -0.10800
C432        C  0.03935229  0.39591896  0.35337839     0.08600
C433        C  0.08979110  0.30701316  0.61818555     0.09600
S434        S  0.09904748  0.36472445  0.53641181    -0.25100
H435        H  0.05524140  0.43397622  0.56671251     0.19800
S436        S  0.01707062  0.40541619  0.40669716    -0.30800
H437        H  0.05461836  0.33489977  0.37040129     0.10200
C438        C  0.12617006  0.29380167  0.63706462     0.03400
C439        C  0.13736569  0.25305933  0.63238157    -0.13100
C440        C  0.11318884  0.22490076  0.60853953    -0.08800
C441        C  0.07497524  0.23875826  0.59182849     0.06800
C442        C  0.06474436  0.27959631  0.59580369    -0.13800
S443        S  0.15809647  0.32886926  0.66750965    -0.30800
H444        H  0.16423059  0.24335069  0.64927902     0.11100
S445        S  0.03605881  0.20745542  0.56619153    -0.27900
H446        H  0.03594804  0.28998919  0.58267313     0.08300
H447        H  0.02019706  0.44800853  0.40533240     0.26700
H448        H  0.19054852  0.30200254  0.67489266     0.21500
H449        H  0.03967350  0.17411453  0.59379751     0.26800
H450        H  0.12899277  0.33820294  0.55177383     0.15700
C451        C  0.05126166  0.63030775  0.57818033    -0.11600
C452        C  0.06894432  0.65034715  0.61376673     0.14900
C453        C  0.07421985  0.63273029  0.33326072     0.01800
C454        C  0.05761843  0.59405046  0.34049321    -0.16000
C455        C  0.03460822  0.57254193  0.62350331    -0.10800
C456        C  0.03452821  0.59133281  0.58245718     0.08600
C457        C  0.08450633  0.69195295  0.60767418     0.09600
S458        S  0.09787232  0.65855799  0.37867567    -0.25100
H459        H  0.05958748  0.58076219  0.37248490     0.19800
S460        S  0.01337622  0.56741349  0.53454712    -0.30800
H461        H  0.05048896  0.64521004  0.54692502     0.10200
C462        C  0.12688870  0.70079014  0.60533574     0.03400
C463        C  0.14011846  0.74125623  0.60221079    -0.13100
C464        C  0.11171252  0.77340948  0.60212039    -0.08800
C465        C  0.06883962  0.76355193  0.60144954     0.06800
C466        C  0.05593408  0.72304421  0.60440047    -0.13800
S467        S  0.16543572  0.66069118  0.27716989    -0.30800
H468        H  0.17273766  0.74695243  0.59961103     0.11100
S469        S  0.02954468  0.80178104  0.59703218    -0.27900
H470        H  0.02331766  0.71546921  0.60473908     0.08300
H471        H  0.01963821  0.52710350  0.54720410     0.26700
H472        H  0.20020052  0.68523222  0.26770582     0.21500
H473        H  0.99772517  0.77890811  0.61706458     0.26800
H474        H  0.08878961  0.69831491  0.36610988     0.15700
C475        C  0.93181804  0.27190925  0.64181132    -0.11600
C476        C  0.90188099  0.29932896  0.62936424     0.14900
C477        C  0.86427609  0.28483386  0.61295738     0.01800
C478        C  0.85673471  0.24300079  0.61088318    -0.16000
C479        C  0.88582433  0.21475023  0.62530058    -0.10800
C480        C  0.92488940  0.22996221  0.63903495     0.08600
C481        C  0.91299951  0.34271039  0.63013157     0.09600
S482        S  0.82541127  0.31801306  0.59243769    -0.25100
H483        H  0.82829295  0.23311535  0.59631686     0.19800
S484        S  0.97118872  0.19518265  0.32002086    -0.30800
H485        H  0.96686029  0.28204369  0.32509378     0.10200
C486        C  0.91545325  0.36328901  0.34695543     0.03400
C487        C  0.93020872  0.40330610  0.35090523    -0.13100
C488        C  0.94547709  0.42188373  0.63170915    -0.08800
C489        C  0.94462254  0.39972728  0.59212142     0.06800
C490        C  0.92870143  0.36019073  0.59188409    -0.13800
S491        S  0.89311382  0.33768533  0.39358564    -0.30800
H492        H  0.92866079  0.41891906  0.38206188     0.11100
S493        S  0.96425300  0.41958734  0.54115319    -0.27900
H494        H  0.92948583  0.34249696  0.56194052     0.08300
H495        H  0.99530016  0.22717001  0.66559525     0.26700
H496        H  0.89838631  0.36990049  0.42348649     0.21500
H497        H  0.96003889  0.46094811  0.55180273     0.26800
H498        H  0.83506588  0.35187253  0.61870232     0.15700
C499        C  0.93763590  0.64155157  0.35082288    -0.11600
C500        C  0.91560707  0.65184352  0.62940306     0.14900
C501        C  0.91027755  0.62373430  0.59480146     0.01800
C502        C  0.92557973  0.58444876  0.59849650    -0.16000
C503        C  0.94515910  0.57237936  0.63639363    -0.10800
C504        C  0.95103833  0.60198314  0.35736896     0.08600
C505        C  0.90460907  0.69512413  0.62582145     0.09600
S506        S  0.88492206  0.63620266  0.54504238    -0.25100
H507        H  0.92340433  0.56352919  0.57114457     0.19800
S508        S  0.97310468  0.59052175  0.40921848    -0.30800
H509        H  0.94287471  0.66440976  0.37581394     0.10200
C510        C  0.87578112  0.71301305  0.65475601     0.03400
C511        C  0.86806301  0.75454531  0.65180347    -0.13100
C512        C  0.88693446  0.77833292  0.61918436    -0.08800
C513        C  0.91442567  0.76008350  0.58909423     0.06800
C514        C  0.92396270  0.71889793  0.59351323    -0.13800
S515        S  0.84711508  0.68271010  0.69394987    -0.30800
H516        H  0.84640111  0.76851687  0.67443553     0.11100
S517        S  0.93421005  0.78775001  0.54275039    -0.27900
H518        H  0.94571544  0.70476924  0.57108713     0.08300
H519        H  0.96529138  0.54843428  0.40743253     0.26700
H520        H  0.82069156  0.71356873  0.70905190     0.21500
H521        H  0.96232605  0.75817649  0.52812722     0.26800
H522        H  0.85809833  0.66491883  0.56392042     0.15700
C523        C  0.29891445  0.12732197  0.61197516    -0.11600
C524        C  0.30532031  0.08850450  0.62844847     0.14900
C525        C  0.27139169  0.06168567  0.63267809     0.01800
C526        C  0.23133597  0.07599307  0.62757873    -0.16000
C527        C  0.22449914  0.11530331  0.61223921    -0.10800
C528        C  0.25955319  0.13947345  0.60019332     0.08600
C529        C  0.34739928  0.07607218  0.64078798     0.09600
S530        S  0.27936508  0.00844852  0.64061259    -0.25100
H531        H  0.20563737  0.05609469  0.63551590     0.19800
S532        S  0.25770115  0.18284025  0.56486587    -0.30800
H533        H  0.32501832  0.14751568  0.60612155     0.10200
C534        C  0.38100900  0.07667199  0.61093303     0.03400
C535        C  0.41934704  0.06241659  0.62392028    -0.13100
C536        C  0.42441347  0.04569282  0.66527609    -0.08800
C537        C  0.39871753  0.05318980  0.32918914     0.06800
C538        C  0.35929513  0.06782276  0.32184351    -0.13800
S539        S  0.37453408  0.09155395  0.55505366    -0.30800
H540        H  0.44476147  0.06125527  0.60060930     0.11100
S541        S  0.41107639  0.03952933  0.38408601    -0.27900
H542        H  0.33737824  0.06975352  0.34882675     0.08300
H543        H  0.22358313  0.16825066  0.54147153     0.26700
H544        H  0.41620830  0.08881099  0.54198302     0.21500
H545        H  0.45400749  0.04474246  0.37928584     0.26800
H546        H  0.23836608  0.99570391  0.63397561     0.15700
C547        C  0.36333582  0.93893682  0.62700261    -0.11600
C548        C  0.34395626  0.91920925  0.66230633     0.14900
C549        C  0.37226644  0.92021174  0.34352099     0.01800
C550        C  0.41039234  0.94069759  0.34274000    -0.16000
C551        C  0.42204219  0.95624912  0.67085618    -0.10800
C552        C  0.40282875  0.95529176  0.63012499     0.08600
C553        C  0.30226637  0.90192431  0.65462461     0.09600
S554        S  0.35996801  0.88968651  0.39054352    -0.25100
H555        H  0.42935816  0.94076075  0.37139634     0.19800
S556        S  0.42758049  0.97245882  0.58036868    -0.30800
H557        H  0.34791400  0.94063783  0.59609126     0.10200
C558        C  0.26668997  0.91520361  0.67776138     0.03400
C559        C  0.22762399  0.90461702  0.66200407    -0.13100
C560        C  0.22347273  0.88117150  0.62393428    -0.08800
C561        C  0.25897323  0.86710764  0.60168619     0.06800
C562        C  0.29769841  0.87687201  0.61772870    -0.13800
S563        S  0.28029033  0.95121275  0.37910440    -0.30800
H564        H  0.20015819  0.91411088  0.67967380     0.11100
S565        S  0.25708358  0.83806626  0.55159376    -0.27900
H566        H  0.32480823  0.86664434  0.59979840     0.08300
H567        H  0.46835025  0.96639379  0.59326945     0.26700
H568        H  0.23869624  0.95591405  0.39170460     0.21500
H569        H  0.22061894  0.85538077  0.53661559     0.26800
H570        H  0.33211996  0.86319684  0.36974714     0.15700
C571        C  0.71178685  0.87703520  0.66402120    -0.11600
C572        C  0.69330819  0.90543122  0.63726680     0.14900
C573        C  0.71722092  0.92359566  0.60376065     0.01800
C574        C  0.75798025  0.91193418  0.59657034    -0.16000
C575        C  0.77730732  0.88402372  0.62370708    -0.10800
C576        C  0.75344904  0.86687065  0.65856414     0.08600
C577        C  0.65051789  0.91827496  0.64797710     0.09600
S578        S  0.69910551  0.96425792  0.57079813    -0.25100
H579        H  0.77462132  0.92731357  0.57093333     0.19800
S580        S  0.77414894  0.84236556  0.36086313    -0.30800
H581        H  0.69285558  0.87125760  0.34415781     0.10200
C582        C  0.61839588  0.91550367  0.61765539     0.03400
C583        C  0.58035305  0.93343138  0.62782602    -0.13100
C584        C  0.57325937  0.95242388  0.66832430    -0.08800
C585        C  0.60376247  0.95092675  0.70033546     0.06800
C586        C  0.64231251  0.93485110  0.68948716    -0.13800
S587        S  0.62557424  0.88902633  0.56632746    -0.30800
H588        H  0.55635170  0.93374823  0.60381435     0.11100
S589        S  0.59674064  0.98706570  0.38382123    -0.27900
H590        H  0.66637858  0.93580798  0.71348356     0.08300
H591        H  0.73955224  0.82539433  0.72263918     0.26700
H592        H  0.58637536  0.89690579  0.54975221     0.21500
H593        H  0.55354745  0.98306111  0.38406057     0.26800
H594        H  0.67347188  0.98108714  0.60331095     0.15700
C595        C  0.64039890  0.07417756  0.66774879    -0.11600
C596        C  0.65344755  0.06767667  0.62440991     0.14900
C597        C  0.62576738  0.04994261  0.59449950     0.01800
C598        C  0.58729328  0.03611495  0.60971683    -0.16000
C599        C  0.57560556  0.04002351  0.65373587    -0.10800
C600        C  0.59961031  0.06943359  0.30795353     0.08600
C601        C  0.69737598  0.07593682  0.61402179     0.09600
S602        S  0.63719493  0.04253521  0.53719285    -0.25100
H603        H  0.56668104  0.02084359  0.58730249     0.19800
S604        S  0.57730530  0.08815771  0.35856018    -0.30800
H605        H  0.65680069  0.09973131  0.32151946     0.10200
C606        C  0.71069838  0.10966241  0.58962977     0.03400
C607        C  0.75301396  0.11904785  0.58686389    -0.13100
C608        C  0.78217357  0.09729976  0.61070809    -0.08800
C609        C  0.76810084  0.06304356  0.63446332     0.06800
C610        C  0.72643038  0.05218217  0.63467465    -0.13800
S611        S  0.67373610  0.14232172  0.56476073    -0.30800
H612        H  0.76316802  0.14488254  0.56781187     0.11100
S613        S  0.79939593  0.03512862  0.67057896    -0.27900
H614        H  0.71595561  0.02668814  0.65424100     0.08300
H615        H  0.54479703  0.06001855  0.36336348     0.26700
H616        H  0.70239474  0.17063343  0.54769346     0.21500
H617        H  0.81305828  0.07043232  0.69239266     0.26800
H618        H  0.68002969  0.04850022  0.53815822     0.15700
C619        C  0.53711072  0.01959658  0.66798575     0.02100
C620        C  0.54027338  0.98329726  0.96133949     0.02000
C621        C  0.50218439  0.96416196  0.96800013    -0.18500
C622        C  0.46582783  0.98601937  0.96483057     0.02100
C623        C  0.46232229  0.02210779  0.67273285     0.02000
C624        C  0.50064509  0.04181616  0.66867735    -0.18500
H625        H  0.50198943  0.07425820  0.66293809     0.04100
H626        H  0.50077719  0.93167905  0.97353741     0.04100
C627        C  0.82654644  0.87250237  0.94358412     0.86300
C628        C  0.83625326  0.82733376  0.94561518    -0.54000
C629        C  0.87709196  0.81900122  0.94897633     0.09200
C630        C  0.90556707  0.85705746  0.94844586     0.20100
C631        C  0.84780448  0.89214637  0.98300442    -0.54700
C632        C  0.88890048  0.88406620  0.98563523     0.09300
C633        C  0.85287987  0.88780211  0.90470867    -0.54200
C634        C  0.89407051  0.88071581  0.90763080     0.09900
H635        H  0.81252688  0.80373088  0.94600635     0.14400
H636        H  0.93897771  0.85056733  0.95065309     0.00100
H637        H  0.83177763  0.91180316  0.00616725     0.14700
H638        H  0.84183705  0.90574828  0.87827852     0.14500
C639        C  0.92324043  0.90444503  0.88032336     0.42200
N640        N  0.94026358  0.94759485  0.83119772     0.01100
C641        C  0.11035733  0.94713071  0.69232034    -0.06800
H642        H  0.14584843  0.96449920  0.85556519     0.06600
C643        C  0.06048565  0.10499269  0.84632338    -0.07100
Co644      Co  0.01321903  0.92249318  0.77812197     0.74200
N645        N  0.08890867  0.95620481  0.82042171    -0.26300
Co646      Co  0.08567000  0.00164588  0.77245180     0.74100
C647        C  0.09989713  0.09563249  0.86476400     0.42300
N648        N  0.96219512  0.06850197  0.82694913     0.00700
N649        N  0.08410369  0.04884157  0.81899736     0.00800
N650        N  0.06204724  0.89715624  0.69860844    -0.46300
H651        H  0.97900312  0.86418526  0.86324234     0.06600
N652        N  0.06074132  0.92679923  0.82130470     0.01100
N653        N  0.07979260  0.04591010  0.72376117     0.00900
C654        C  0.08913987  0.08646521  0.00480257     0.42500
N655        N  0.93542823  0.03813925  0.83026369    -0.25700
C656        C  0.95597473  0.89152844  0.70322312    -0.06700
N657        N  0.91186342  0.93900411  0.86100296    -0.46800
N658        N  0.10611368  0.05524453  0.69151021    -0.47100
C659        C  0.91493422  0.90376857  0.01858580     0.42200
N660        N  0.05644570  0.92582081  0.72823729     0.01100
N661        N  0.92998737  0.03479265  0.73592183    -0.25800
N662        N  0.96958654  0.92026131  0.82883629    -0.26300
N663        N  0.95680287  0.06501670  0.73315863     0.00800
H664        H  0.87211889  0.02248778  0.03477851     0.06600
H665        H  0.02969701  0.12089735  0.02200856     0.06700
N666        N  0.08448407  0.95520067  0.72585081    -0.26300
N667        N  0.05324176  0.07462932  0.81855663    -0.25900
N668        N  0.93489995  0.94544989  0.73746029     0.01100
C669        C  0.10398960  0.90834923  0.86842665     0.42500
C670        C  0.90945022  0.04583554  0.86368870    -0.07200
N671        N  0.04805169  0.07062413  0.72560254    -0.25900
H672        H  0.04108135  0.13112362  0.85161542     0.06700
N673        N  0.06877597  0.89786382  0.84898265    -0.47100
H674        H  0.88300042  0.02734918  0.87299660     0.06700
C675        C  0.91135015  0.07965882  0.01937536     0.42400
C676        C  0.96182880  0.89178673  0.85920315    -0.06700
Co677      Co  0.93462489  0.99141736  0.78391277     0.73800
N678        N  0.95553234  0.09768589  0.85610490    -0.46900
C679        C  0.09631704  0.90804997  0.00862574     0.42600
N680        N  0.90469674  0.93725037  0.71051373    -0.46800
Co681      Co  0.00506583  0.07012974  0.77600635     0.73900
C682        C  0.05147128  0.09737453  0.69352175    -0.07200
C683        C  0.11770325  0.94741590  0.85000499    -0.06700
N684        N  0.96507099  0.91908437  0.73437522    -0.26300
N685        N  0.11309818  0.06023617  0.84680598    -0.47000
H686        H  0.13818041  0.96428319  0.01857129     0.06600
C687        C  0.90044536  0.04021208  0.70671007    -0.07100
Cl688      Cl  0.00972934  0.99643573  0.77780594    -0.50100
C689        C  0.92294176  0.08531586  0.88062518     0.42400
H690        H  0.97336011  0.86530142  0.02544286     0.06600
N691        N  0.94644776  0.09230626  0.70432122    -0.46900
C692        C  0.88281031  0.17134126  0.95523323     0.86300
C693        C  0.89160021  0.14706665  0.99617420    -0.54000
C694        C  0.88773737  0.10609607  0.99121365     0.09200
C695        C  0.87073513  0.09279578  0.94695676     0.20100
C696        C  0.90866824  0.15129833  0.91853852    -0.54700
C697        C  0.90203311  0.11039266  0.91405472     0.09300
C698        C  0.83795554  0.15898627  0.94542559    -0.54200
C699        C  0.83151775  0.11804540  0.94105026     0.09900
H700        H  0.90322448  0.16085229  0.02583644     0.14400
H701        H  0.86595365  0.05948359  0.94360614     0.00100
H702        H  0.93011571  0.16818786  0.89780754     0.14700
H703        H  0.81245475  0.17979000  0.94414350     0.14500
C704        C  0.12829483  0.81726831  0.93875304     0.86300
C705        C  0.10895391  0.84054768  0.97721570    -0.54000
C706        C  0.11705493  0.88117972  0.97739385     0.09200
C707        C  0.14572333  0.89535017  0.94029048     0.20100
C708        C  0.11513649  0.84014514  0.89815902    -0.54700
C709        C  0.12359625  0.88100662  0.89919574     0.09300
C710        C  0.17449704  0.82716285  0.94256084    -0.54200
C711        C  0.18338430  0.86774430  0.94313170     0.09900
H712        H  0.08940396  0.82607647  0.00178570     0.14400
H713        H  0.15291975  0.92843601  0.94103245     0.00100
H714        H  0.09812736  0.82556420  0.87205144     0.14700
H715        H  0.19869981  0.80527414  0.94639935     0.14500
C716        C  0.12399412  0.18170124  0.94383390     0.86300
C717        C  0.11354088  0.16177714  0.89986392    -0.54000
C718        C  0.12039891  0.12097271  0.89769358     0.09200
C719        C  0.14125145  0.10417134  0.93784169     0.20100
C720        C  0.10271925  0.15561705  0.97828116    -0.54700
C721        C  0.11139253  0.11525073  0.97577890     0.09300
C722        C  0.16991408  0.17241464  0.94835081    -0.54200
C723        C  0.17968047  0.13235428  0.94295557     0.09900
H724        H  0.10114514  0.17793383  0.87265449     0.14400
H725        H  0.14732191  0.07117524  0.93486676     0.00100
H726        H  0.08187718  0.16853686  0.00263924     0.14700
H727        H  0.19312059  0.19575456  0.95350331     0.14500
C728        C  0.01161495  0.53456137  0.63148666     0.02100
C729        C  0.96819117  0.53407936  0.63542469     0.02000
C730        C  0.94684724  0.49696879  0.63701507    -0.18500
C731        C  0.96853494  0.46051827  0.63545102     0.02100
C732        C  0.01212193  0.46132020  0.63490997     0.02000
C733        C  0.03328955  0.49837347  0.63265924    -0.18500
H734        H  0.06669531  0.49896676  0.63020194     0.04100
H735        H  0.91341921  0.49644687  0.63820130     0.04100
C736        C  0.05708832  0.35988376  0.66371033    -0.11600
C737        C  0.07820826  0.34993152  0.97791155     0.14900
C738        C  0.08190890  0.38035576  0.94613103     0.01800
C739        C  0.06309117  0.41770286  0.95363551    -0.16000
C740        C  0.04141852  0.42556245  0.99267728    -0.10800
C741        C  0.03814725  0.39744030  0.66918057     0.08600
C742        C  0.09090262  0.30796342  0.96864218     0.09600
S743        S  0.10905385  0.37278326  0.89500142    -0.25100
H744        H  0.06424514  0.44038804  0.92831688     0.19800
S745        S  0.01737540  0.40979361  0.72250501    -0.30800
H746        H  0.05707333  0.33880846  0.69057823     0.10200
C747        C  0.12504446  0.29094467  0.98852743     0.03400
C748        C  0.13487571  0.25044393  0.97952714    -0.13100
C749        C  0.11193329  0.22633176  0.95000885    -0.08800
C750        C  0.07541317  0.24346035  0.93283623     0.06800
C751        C  0.06650152  0.28419800  0.94118888    -0.13800
S752        S  0.15600080  0.32079748  0.02556533    -0.30800
H753        H  0.15991222  0.23740979  0.99706351     0.11100
S754        S  0.03637200  0.21610462  0.90283351    -0.27900
H755        H  0.03907206  0.29721494  0.92759862     0.08300
H756        H  0.01837788  0.45221275  0.71788224     0.26700
H757        H  0.18716937  0.29203233  0.03085462     0.21500
H758        H  0.03835848  0.18035354  0.92717894     0.26800
H759        H  0.13742494  0.34470173  0.91056338     0.15700
C760        C  0.05273394  0.62825107  0.92914246    -0.11600
C761        C  0.07334853  0.65022780  0.96151715     0.14900
C762        C  0.07053753  0.63085402  0.65439051     0.01800
C763        C  0.05398976  0.59176077  0.65856083    -0.16000
C764        C  0.03813877  0.57401616  0.98001561    -0.10800
C765        C  0.03553403  0.59010009  0.93773859     0.08600
C766        C  0.08835294  0.69139108  0.95119571     0.09600
S767        S  0.09190726  0.65451208  0.70233188    -0.25100
H768        H  0.05447704  0.57695399  0.68986718     0.19800
S769        S  0.01056758  0.56374630  0.89347250    -0.30800
H770        H  0.04990672  0.64106324  0.89700161     0.10200
C771        C  0.13050461  0.70043275  0.94566110     0.03400
C772        C  0.14311776  0.74079961  0.93923129    -0.13100
C773        C  0.11433049  0.77265344  0.93873109    -0.08800
C774        C  0.07158496  0.76231117  0.94080697     0.06800
C775        C  0.05931230  0.72197647  0.94720829    -0.13800
S776        S  0.16408001  0.66037310  0.60607197    -0.30800
H777        H  0.17555884  0.74668980  0.93484654     0.11100
S778        S  0.03166038  0.79988667  0.93639834    -0.27900
H779        H  0.02681285  0.71420789  0.94995339     0.08300
H780        H  0.01770414  0.52425635  0.90817884     0.26700
H781        H  0.19970893  0.68502303  0.60273661     0.21500
H782        H  0.00106234  0.77785219  0.95941035     0.26800
H783        H  0.08289785  0.69477616  0.69159097     0.15700
C784        C  0.93837109  0.27213449  0.98445651    -0.11600
C785        C  0.90918660  0.30080166  0.97314670     0.14900
C786        C  0.87241643  0.28795046  0.95350433     0.01800
C787        C  0.86481260  0.24645619  0.94715320    -0.16000
C788        C  0.89292550  0.21681551  0.96052235    -0.10800
C789        C  0.93128958  0.23052938  0.97768075     0.08600
C790        C  0.92014227  0.34403473  0.97875835     0.09600
S791        S  0.83448240  0.32301659  0.93466503    -0.25100
H792        H  0.83693604  0.23811947  0.93059431     0.19800
S793        S  0.96742383  0.19705141  0.65122990    -0.30800
H794        H  0.96132384  0.28370740  0.65246784     0.10200
C795        C  0.91161459  0.36551222  0.66911479     0.03400
C796        C  0.92740691  0.40528421  0.66939346    -0.13100
C797        C  0.95085447  0.42350133  0.98896647    -0.08800
C798        C  0.95131143  0.40470519  0.94742859     0.06800
C799        C  0.93638162  0.36501755  0.94288156    -0.13800
S800        S  0.89102859  0.34339558  0.71858833    -0.30800
H801        H  0.92755483  0.42284975  0.69937418     0.11100
S802        S  0.97144632  0.42938482  0.89926220    -0.27900
H803        H  0.93817228  0.35002917  0.91134192     0.08300
H804        H  0.00180196  0.22526002  0.00343039     0.26700
H805        H  0.90006047  0.37660013  0.74613352     0.21500
H806        H  0.96145277  0.46905827  0.91262166     0.26800
H807        H  0.84252556  0.35403111  0.96521380     0.15700
C808        C  0.93358832  0.63899345  0.66799306    -0.11600
C809        C  0.92009315  0.65294705  0.98362076     0.14900
C810        C  0.91234232  0.62194666  0.95257374     0.01800
C811        C  0.92714213  0.58289198  0.95942433    -0.16000
C812        C  0.94903605  0.57392379  0.99691484    -0.10800
C813        C  0.94721677  0.59926434  0.67231306     0.08600
C814        C  0.90969027  0.69587111  0.97570051     0.09600
S815        S  0.88481841  0.63049676  0.90312880    -0.25100
H816        H  0.92315736  0.55976200  0.93444642     0.19800
S817        S  0.96736865  0.58487080  0.72418249    -0.30800
H818        H  0.93734034  0.66022830  0.69485864     0.10200
C819        C  0.88059990  0.71636629  0.00218044     0.03400
C820        C  0.87189489  0.75699972  0.99363125    -0.13100
C821        C  0.89057361  0.77725210  0.95824852    -0.08800
C822        C  0.91873574  0.75645991  0.93100518     0.06800
C823        C  0.92879419  0.71621888  0.94060127    -0.13800
S824        S  0.85291642  0.69030945  0.04541421    -0.30800
H825        H  0.84978892  0.77298964  0.01410764     0.11100
S826        S  0.93892850  0.77971788  0.88202021    -0.27900
H827        H  0.95066486  0.70002531  0.92003636     0.08300
H828        H  0.95958196  0.54296126  0.71952799     0.26700
H829        H  0.82427011  0.72112611  0.05455187     0.21500
H830        H  0.96646783  0.74857152  0.87045362     0.26800
H831        H  0.85950766  0.66138153  0.92022201     0.15700
C832        C  0.29629028  0.13246195  0.92377814    -0.11600
C833        C  0.30601434  0.09366648  0.93805970     0.14900
C834        C  0.27387805  0.06602087  0.94806692     0.01800
C835        C  0.23315528  0.07940235  0.95048737    -0.16000
C836        C  0.22319440  0.11876587  0.93770359    -0.10800
C837        C  0.25525793  0.14402408  0.92009978     0.08600
C838        C  0.34966580  0.08237249  0.94320403     0.09600
S839        S  0.28451319  0.01305550  0.95443578    -0.25100
H840        H  0.20930332  0.05888666  0.96229203     0.19800
S841        S  0.24664721  0.18847838  0.88775177    -0.30800
H842        H  0.32074991  0.15318881  0.91360269     0.10200
C843        C  0.37817924  0.08195168  0.90796016     0.03400
C844        C  0.41810201  0.06767540  0.91450052    -0.13100
C845        C  0.42937861  0.05242059  0.95498336    -0.08800
C846        C  0.39158989  0.04747239  0.69598108     0.06800
C847        C  0.35354393  0.06260331  0.68342883    -0.13800
S848        S  0.36294181  0.09581351  0.85390612    -0.30800
H849        H  0.43963923  0.06543126  0.88726177     0.11100
S850        S  0.39625563  0.03084009  0.75139006    -0.27900
H851        H  0.32817903  0.06317581  0.70688542     0.08300
H852        H  0.20999145  0.17331110  0.86951433     0.26700
H853        H  0.40215468  0.09256649  0.83393548     0.21500
H854        H  0.43926457  0.03605018  0.75346542     0.26800
H855        H  0.24326615  0.99927108  0.95456408     0.15700
C856        C  0.36364236  0.94397968  0.92884820    -0.11600
C857        C  0.34907447  0.92459849  0.96674488     0.14900
C858        C  0.36561000  0.91538688  0.70160287     0.01800
C859        C  0.40379958  0.93532615  0.70594938    -0.16000
C860        C  0.42663440  0.96314431  0.96432188    -0.10800
C861        C  0.40297025  0.96089486  0.92642944     0.08600
C862        C  0.30710976  0.90671211  0.96543070     0.09600
S863        S  0.34782604  0.88413540  0.74622303    -0.25100
H864        H  0.41962777  0.93419244  0.73664579     0.19800
S865        S  0.42203342  0.97625747  0.87342600    -0.30800
H866        H  0.34461783  0.94481153  0.90024804     0.10200
C867        C  0.27493321  0.91894611  0.99426704     0.03400
C868        C  0.23439218  0.90664657  0.98551009    -0.13100
C869        C  0.22562701  0.88275854  0.94878985    -0.08800
C870        C  0.25772619  0.87032210  0.92043961     0.06800
C871        C  0.29804235  0.88148910  0.92968482    -0.13800
S872        S  0.27029219  0.94690982  0.72604163    -0.30800
H873        H  0.20937793  0.91540512  0.00733553     0.11100
S874        S  0.24909239  0.84194388  0.87078887    -0.27900
H875        H  0.32252687  0.87217958  0.90738260     0.08300
H876        H  0.46398899  0.97002071  0.88148254     0.26700
H877        H  0.22803710  0.95556117  0.73035487     0.21500
H878        H  0.21052188  0.85892943  0.86231721     0.26800
H879        H  0.32153629  0.85889626  0.72179266     0.15700
C880        C  0.71199515  0.87847672  0.97943165    -0.11600
C881        C  0.69551318  0.90230362  0.94671008     0.14900
C882        C  0.72123012  0.91477737  0.91184089     0.01800
C883        C  0.76215955  0.90274163  0.90985455    -0.16000
C884        C  0.78002604  0.88077071  0.94370224    -0.10800
C885        C  0.75380647  0.86802770  0.97882377     0.08600
C886        C  0.65309471  0.91775129  0.95252058     0.09600
S887        S  0.70508192  0.94915897  0.87052516    -0.25100
H888        H  0.77960607  0.91295391  0.88197577     0.19800
S889        S  0.77575649  0.83369914  0.69827895    -0.30800
H890        H  0.69364025  0.86387544  0.69034894     0.10200
C891        C  0.62227905  0.91130526  0.92125502     0.03400
C892        C  0.58515674  0.93241739  0.92549398    -0.13100
C893        C  0.57769783  0.95828309  0.96125222    -0.08800
C894        C  0.60666669  0.96100380  0.99480416     0.06800
C895        C  0.64444681  0.94169955  0.98949815    -0.13800
S896        S  0.62983669  0.87605327  0.87643583    -0.30800
H897        H  0.56205784  0.92939560  0.90063743     0.11100
S898        S  0.59556268  0.96861335  0.75550353    -0.27900
H899        H  0.66757677  0.94580612  0.01421776     0.08300
H900        H  0.73467723  0.83076885  0.04420455     0.26700
H901        H  0.59337138  0.88498719  0.85457653     0.21500
H902        H  0.55226211  0.96714748  0.75538848     0.26800
H903        H  0.68202517  0.97356337  0.89950424     0.15700
C904        C  0.64234673  0.08305425  0.96031530    -0.11600
C905        C  0.66235631  0.07079691  0.92159181     0.14900
C906        C  0.64010764  0.04903140  0.88971896     0.01800
C907        C  0.59995026  0.03593986  0.89975940    -0.16000
C908        C  0.58138843  0.04515641  0.94023302    -0.10800
C909        C  0.60161346  0.06111279  0.68269666     0.08600
C910        C  0.70717482  0.07800600  0.91883939     0.09600
S911        S  0.66037286  0.03691130  0.83606156    -0.25100
H912        H  0.58339769  0.01736622  0.87637340     0.19800
S913        S  0.58827119  0.07207874  0.73894754    -0.30800
H914        H  0.66125442  0.08862724  0.69050709     0.10200
C915        C  0.72464268  0.10996494  0.89448481     0.03400
C916        C  0.76624743  0.12034527  0.90015004    -0.13100
C917        C  0.78995591  0.10105250  0.93165424    -0.08800
C918        C  0.77205435  0.06872292  0.95559419     0.06800
C919        C  0.73153428  0.05663680  0.94771583    -0.13800
S920        S  0.69331988  0.13923358  0.85867900    -0.30800
H921        H  0.77986635  0.14496064  0.88148938     0.11100
S922        S  0.79632473  0.04563600  0.00099149    -0.27900
H923        H  0.71757834  0.03268029  0.96722784     0.08300
H924        H  0.54929859  0.05326299  0.74107680     0.26700
H925        H  0.72422083  0.16730589  0.84608101     0.21500
H926        H  0.80892863  0.08296434  0.01938470     0.26800
H927        H  0.70242303  0.04174626  0.84491347     0.15700
loop_ 
_geom_bond_atom_site_label_1 
_geom_bond_atom_site_label_2 
_geom_bond_distance 
_geom_bond_site_symmetry_2 
_ccdc_geom_bond_type 
C1            C6   1.398       .  A
C1          C620   1.413   1_545  A
C1          C908   1.468       .  S
C2            C3   1.394       .  A
C2          C310   1.414   1_565  A
C2          C275   1.475       .  S
C3            C4   1.396       .  A
C3            H8   1.085       .  S
C4          C314   1.416   1_565  A
C4          C242   1.472       .  S
C5            C6   1.397       .  A
C5          C622   1.416   1_545  A
C5          C845   1.479       .  S
C6            H7   1.084       .  S
C9           C10   1.525       .  S
C9           C15   1.541       .  S
C9           C13   1.535       .  S
C9          C266   1.534       .  S
C10          H17   1.087       .  S
C10          C11   1.362       .  D
C11          C12   1.547       .  S
C11         C203   1.478       .  S
C12          C16   1.539       .  S
C12          C14   1.537       .  S
C12          H18   1.111       .  S
C13          H19   1.087       .  S
C13          C14   1.365       .  D
C14          C41   1.471       .  S
C15          H20   1.079       .  S
C15          C16   1.365       .  D
C16          C21   1.474       .  S
C21          C58   1.463       .  S
C21          N39   1.347       .  A
N22          N39   1.317       .  A
N22          N44   1.318       .  A
N22         Co59   2.069       .  S
C23         C679   1.456       .  S
C23         H686   1.082       .  S
C23          N48   1.343       .  A
H24          C65   1.082       .  S
C25          C29   1.446       .  S
C25          H54   1.081       .  S
C25          N49   1.328       .  A
Co26         N44   2.089   1_455  S
Co26         N34   2.064       .  S
Co26         N66   2.089   1_455  S
Co26         N42   2.068       .  S
Co26        Cl70   2.434       .  S
N27          C65   1.350       .  A
N27          N34   1.323       .  A
N27         Co28   2.108   1_565  S
Co28         N31   2.094       .  S
Co28         N48   2.078   1_545  S
Co28         N35   2.108       .  S
Co28        Cl70   2.474   1_545  S
C29         C100   1.466       .  S
C29          N67   1.354       .  A
N30          N37   1.319       .  A
N30          N60   1.323       .  A
N30         Co63   2.075   1_655  S
N31          N49   1.320       .  A
N31          N67   1.330       .  A
N32         C679   1.344       .  A
N32          N42   1.317       .  A
H33          C58   1.081       .  S
N34          N55   1.316       .  A
N35          N53   1.320       .  A
N35          N40   1.332       .  A
C36         C373   1.456       .  S
C36         C103   1.481       .  S
C36         N349   1.356       .  A
N37          C52   1.342       .  A
N37         Co59   2.086   1_545  S
C38         C659   1.462       .  S
C38         H690   1.082       .  S
C38          N66   1.345       .  A
N40         C654   1.357       .  A
C41         C347   1.461       .  S
C41         N371   1.346       .  A
N42          N48   1.321       .  A
N43          C69   1.343       .  A
N43          N45   1.316       .  A
N43         Co59   2.075   1_545  S
N44          C58   1.348       .  A
N45          N73   1.318       .  A
N45         Co63   2.063   1_655  S
H46         C378   1.078       .  S
H47         C373   1.081       .  S
N49         Co63   2.058       .  S
N50          N62   1.321       .  A
N50          N66   1.319       .  A
N50         Co59   2.070       .  S
C51          C65   1.468       .  S
C51          C91   1.471       .  S
C51          N55   1.341       .  A
C52          C71   1.460       .  S
C52          H56   1.082       .  S
N53          C64   1.330       .  A
N53         Co63   2.067       .  S
C57         C378   1.457       .  S
C57          C76   1.466       .  S
C57         N382   1.347       .  A
Co59        Cl70   2.451   1_655  S
N60          C71   1.348       .  A
C61         C332   1.456       .  S
C61          C88   1.459       .  S
C61         N341   1.345       .  A
N62         C659   1.346       .  A
Co63        Cl70   2.425   1_545  S
C64         C654   1.455       .  S
C64         H665   1.081       .  S
H68         C332   1.082       .  S
C69         C675   1.459       .  S
C69         H664   1.079       .  S
C71          C79   1.472       .  S
H72         C347   1.082       .  S
N73         C675   1.346       .  A
C74          C75   1.529       .  S
C74          C80   1.540       .  S
C74          C78   1.539       .  S
C74         C170   1.534       .  S
C75          H82   1.086       .  S
C75          C76   1.359       .  D
C76          C77   1.537       .  S
C77          C81   1.545       .  S
C77          C79   1.533       .  S
C77          H83   1.110       .  S
C78          H84   1.086       .  S
C78          C79   1.366       .  D
C80          H85   1.082       .  S
C80          C81   1.367       .  D
C81         C299   1.487       .  S
C86          C87   1.531       .  S
C86          C92   1.535       .  S
C86          C90   1.531       .  S
C86         C155   1.528       .  S
C87          H94   1.087       .  S
C87          C88   1.360       .  D
C88          C89   1.532       .  S
C89          C93   1.539       .  S
C89          C91   1.535       .  S
C89          H95   1.111       .  S
C90          H96   1.087       .  S
C90          C91   1.367       .  D
C92          H97   1.081       .  S
C92          C93   1.363       .  D
C93         C251   1.468       .  S
C98          C99   1.536       .  S
C98         C104   1.534       .  S
C98         C102   1.522       .  S
C98         C131   1.533       .  S
C99         H106   1.082       .  S
C99         C100   1.364       .  D
C100        C101   1.530       .  S
C101        C105   1.553       .  S
C101        C103   1.546       .  S
C101        H107   1.109       .  S
C102        H108   1.086       .  S
C102        C103   1.363       .  D
C104        H109   1.081       .  S
C104        C105   1.368       .  D
C105        C218   1.492       .  S
C110        C111   1.413   1_455  A
C110        C115   1.394       .  A
C110        C764   1.472       .  S
C111        C112   1.400       .  A
C111        C812   1.478       .  S
C112        C113   1.401       .  A
C112        H117   1.084   1_556  S
C113        C114   1.415   1_655  A
C113        C797   1.476       .  S
C114        C115   1.396       .  A
C114        C740   1.476       .  S
C115        H116   1.085       .  S
C118        C123   1.396       .  A
C118        C737   1.401   1_554  A
C118        H128   1.084       .  S
C119        C120   1.408       .  A
C119        C427   1.401       .  A
C119        C124   1.469       .  S
C120        C121   1.394       .  A
C120        S125   1.804       .  S
C121        C122   1.403       .  A
C121        H126   1.084       .  S
C122        C432   1.412       .  A
C122        C423   1.476       .  S
C123        C740   1.412   1_554  A
C123        S127   1.804       .  S
C124        C129   1.400       .  A
C124        C133   1.394       .  A
S125        H141   1.406       .  S
S127        H138   1.406       .  S
C129        C130   1.398       .  A
C129        S134   1.807       .  S
C130        C131   1.415       .  A
C130        H135   1.079       .  S
C131        C132   1.431       .  A
C132        C133   1.395       .  A
C132        S136   1.806       .  S
C133        H137   1.085       .  S
S134        H139   1.407       .  S
S136        H140   1.404       .  S
C142        C143   1.399       .  A
C142        C147   1.393       .  A
C142        H152   1.084       .  S
C143        C453   1.412       .  A
C143        C148   1.466       .  S
C144        C145   1.396       .  A
C144        C761   1.413   1_554  A
C144        S149   1.805       .  S
C145        C764   1.399   1_554  A
C145        H150   1.084       .  S
C146        C147   1.412       .  A
C146        C454   1.399       .  A
C146        C419   1.469       .  S
C147        S151   1.806       .  S
C148        C153   1.402       .  A
C148        C157   1.395       .  A
S149        H165   1.405       .  S
S151        H162   1.404       .  S
C153        C154   1.398       .  A
C153        S467   1.807       .  S
C154        C155   1.412       .  A
C154        H159   1.074       .  S
C155        C156   1.424       .  A
C156        C157   1.395       .  A
C156        S160   1.811       .  S
C157        H161   1.084       .  S
S158        C771   1.808       .  S
S158        H163   1.407       .  S
S160        H164   1.406   1_455  S
C166        C167   1.396       .  A
C166        C171   1.399       .  A
C166        H485   1.083       .  S
C167        C168   1.404       .  A
C167        C172   1.469       .  S
C168        C169   1.396       .  A
C168        S173   1.805       .  S
C169        C170   1.413       .  A
C169        H174   1.077       .  S
C170        C171   1.427       .  A
C171        S484   1.813       .  S
C172        C181   1.398       .  A
C172        C486   1.408       .  A
S173        H189   1.405       .  S
S175        C789   1.812       .  S
S175        H804   1.407   1_656  S
H176        C784   1.083       .  S
C177        C178   1.402       .  A
C177        C790   1.409   1_554  A
C177        S182   1.806       .  S
C178        C797   1.401   1_554  A
C178        H183   1.083       .  S
C179        C180   1.412       .  A
C179        C487   1.401       .  A
C179        C422   1.473       .  S
C180        C181   1.393       .  A
C180        S184   1.805       .  S
C181        H185   1.084       .  S
S182        H187   1.407       .  S
S184        H188   1.405       .  S
H186        S484   1.407   1_455  S
C190        C195   1.397       .  A
C190        C809   1.404   1_554  A
C190        H200   1.084       .  S
C191        C192   1.414       .  A
C191        C499   1.404       .  A
C191        C196   1.481       .  S
C192        C193   1.398       .  A
C192        S197   1.803       .  S
C193        C194   1.401       .  A
C193        H198   1.084       .  S
C194        C504   1.411       .  A
C194        C420   1.477       .  S
C195        C812   1.411   1_554  A
C195        S199   1.805       .  S
C196        C201   1.409       .  A
C196        C205   1.406       .  A
S197        H213   1.406       .  S
S199        H210   1.406       .  S
C201        C202   1.399       .  A
C201        S206   1.808       .  S
C202        C203   1.405       .  A
C202        H207   1.083       .  S
C203        C204   1.407       .  A
C204        C205   1.403       .  A
C204        S208   1.805       .  S
C205        H209   1.083       .  S
S206        H211   1.407       .  S
S208        H212   1.407       .  S
C214        C215   1.397       .  A
C214        C219   1.396       .  A
C214        H224   1.084       .  S
C215        C216   1.407       .  A
C215        C220   1.481       .  S
C216        C217   1.398       .  A
C216        S221   1.794       .  S
C217        C218   1.401       .  A
C217        H222   1.081       .  S
C218        C219   1.425       .  A
C219        S223   1.805       .  S
C220        C225   1.411       .  A
C220        C538   1.404       .  A
S221        H237   1.407   1_545  S
S223        H234   1.408       .  S
C225        C226   1.402       .  A
C225        S230   1.807       .  S
C226        C227   1.403       .  A
C226        H231   1.083       .  S
C227        C537   1.410       .  A
C227        C314   1.480       .  S
C228        C229   1.395       .  A
C228        C845   1.410       .  A
C228        S232   1.804   1_556  S
C229        C838   1.404       .  A
C229        H233   1.084   1_556  S
S230        H235   1.407       .  S
S232        H236   1.406       .  S
C238        C239   1.406       .  A
C238        C243   1.387       .  A
C238        H248   1.084       .  S
C239        C549   1.415       .  A
C239        C244   1.481       .  S
C240        C241   1.399       .  A
C240        C857   1.414   1_554  A
C240        S245   1.805       .  S
C241        C860   1.403   1_554  A
C241        H246   1.084       .  S
C242        C243   1.407       .  A
C242        C550   1.403       .  A
C243        S247   1.806       .  S
C244        C249   1.417       .  A
C244        C253   1.404       .  A
S245        H261   1.406       .  S
S247        H258   1.406       .  S
C249        C250   1.403       .  A
C249        S563   1.810       .  S
C250        C251   1.401       .  A
C250        H255   1.083       .  S
C251        C252   1.408       .  A
C252        C253   1.388       .  A
C252        S256   1.805       .  S
C253        H257   1.084       .  S
S254        C867   1.810   1_554  S
S254        H259   1.407       .  S
S256        H260   1.407       .  S
C262        C263   1.399       .  A
C262        C267   1.402       .  A
C262        H581   1.083       .  S
C263        C264   1.408       .  A
C263        C268   1.480       .  S
C264        C265   1.391       .  A
C264        S269   1.799       .  S
C265        C266   1.410       .  A
C265        H270   1.073       .  S
C266        C267   1.425       .  A
C267        S580   1.812       .  S
C268        C273   1.412       .  A
C268        C277   1.402       .  A
S269        H285   1.404       .  S
S271        C885   1.811   1_554  S
S271        H900   1.407       .  S
H272        C880   1.083   1_554  S
C273        C274   1.401       .  A
C273        S278   1.807       .  S
C274        C275   1.403       .  A
C274        H279   1.083       .  S
C275        C276   1.409       .  A
C276        C277   1.393       .  A
C276        S589   1.801       .  S
C277        H281   1.084       .  S
S278        H283   1.407       .  S
S280        C894   1.802   1_554  S
S280        H284   1.405       .  S
H282        S580   1.407       .  S
C286        C287   1.403       .  A
C286        C600   1.393       .  A
C286        H605   1.084       .  S
C287        C288   1.412       .  A
C287        C292   1.474       .  S
C288        C289   1.398       .  A
C288        S293   1.807       .  S
C289        C290   1.404       .  A
C289        H294   1.084       .  S
C290        C600   1.410       .  A
C290        C310   1.471       .  S
C291        C904   1.392       .  A
C291        C908   1.410       .  A
C291        S295   1.809   1_556  S
C292        C297   1.406       .  A
C292        C301   1.400       .  A
S293        H309   1.403       .  S
S295        H306   1.401       .  S
H296        C904   1.084       .  S
C297        C298   1.402       .  A
C297        S302   1.806       .  S
C298        C299   1.409       .  A
C298        H303   1.083       .  S
C299        C300   1.413       .  A
C300        C301   1.394       .  A
C300        S304   1.794       .  S
C301        H305   1.085       .  S
S302        H307   1.406       .  S
S304        H308   1.406       .  S
C310        C315   1.398       .  A
C311        C619   1.413   1_565  A
C311        C312   1.398       .  A
C311        C584   1.480       .  S
C312        C313   1.400       .  A
C312        H317   1.084       .  S
C313        C623   1.418   1_565  A
C313        C551   1.475       .  S
C314        C315   1.397       .  A
C315        H316   1.084       .  S
C318        C319   1.525       .  S
C318        C324   1.545       .  S
C318        C322   1.529       .  S
C318        C575   1.536       .  S
C319        H326   1.087       .  S
C319        C320   1.363       .  D
C320        C321   1.548       .  S
C320        C512   1.480       .  S
C321        C325   1.538       .  S
C321        C323   1.538       .  S
C321        H327   1.111       .  S
C322        H328   1.087       .  S
C322        C323   1.362       .  D
C323        C350   1.469       .  S
C324        H329   1.080       .  S
C324        C325   1.370       .  D
C325        C330   1.477       .  S
C330        C367   1.468       .  S
C330        N348   1.344       .  A
N331        N348   1.318       .  A
N331        N353   1.319       .  A
N331       Co368   2.061       .  S
C332        N357   1.342       .  A
H333        C374   1.082       .  S
C334        C338   1.454       .  S
C334        H363   1.079       .  S
C334        N358   1.331       .  A
Co335       N353   2.101   1_455  S
Co335       N343   2.071       .  S
Co335       N375   2.088   1_455  S
Co335       N351   2.072       .  S
Co335      Cl379   2.435       .  S
N336        C374   1.349       .  A
N336        N343   1.322       .  A
N336       Co337   2.100   1_565  S
Co337       N340   2.080       .  S
Co337       N357   2.072   1_545  S
Co337       N344   2.104       .  S
Co337      Cl379   2.471   1_545  S
C338        C409   1.467       .  S
C338        N376   1.349       .  A
N339        N346   1.320       .  A
N339        N369   1.324       .  A
N339       Co372   2.085   1_655  S
N340        N358   1.321       .  A
N340        N376   1.328       .  A
N341        N351   1.317       .  A
H342        C367   1.080       .  S
N343        N364   1.317       .  A
N344        N362   1.320       .  A
N344        N349   1.332       .  A
C345        C682   1.453       .  S
C345        C412   1.479       .  S
C345        N658   1.357       .  A
N346        C361   1.341       .  A
N346       Co368   2.082   1_545  S
C347        N375   1.345       .  A
C350        C656   1.461       .  S
C350        N680   1.346       .  A
N351        N357   1.320       .  A
N352        C378   1.342       .  A
N352        N354   1.317       .  A
N352       Co368   2.070   1_545  S
N353        C367   1.349       .  A
N354        N382   1.318       .  A
N354       Co372   2.069   1_655  S
H355        C687   1.075       .  S
H356        C682   1.082       .  S
N358       Co372   2.073       .  S
N359        N371   1.320       .  A
N359        N375   1.318       .  A
N359       Co368   2.069       .  S
C360        C374   1.464       .  S
C360        C400   1.472       .  S
C360        N364   1.344       .  A
C361        C380   1.457       .  S
C361        H365   1.082       .  S
N362        C373   1.331       .  A
N362       Co372   2.072       .  S
C366        C687   1.459       .  S
C366        C385   1.471       .  S
C366        N691   1.349       .  A
Co368      Cl379   2.450   1_655  S
N369        C380   1.351       .  A
C370        C641   1.459       .  S
C370        C397   1.460       .  S
C370        N650   1.342       .  A
Co372      Cl379   2.430   1_545  S
H377        C641   1.082       .  S
C380        C388   1.473       .  S
H381        C656   1.082       .  S
C383        C384   1.531       .  S
C383        C389   1.537       .  S
C383        C387   1.535       .  S
C383        C479   1.533       .  S
C384        H391   1.086       .  S
C384        C385   1.361       .  D
C385        C386   1.541       .  S
C386        C390   1.554       .  S
C386        C388   1.537       .  S
C386        H392   1.109       .  S
C387        H393   1.087       .  S
C387        C388   1.363       .  D
C389        H394   1.083       .  S
C389        C390   1.369       .  D
C390        C608   1.500       .  S
C395        C396   1.533       .  S
C395        C401   1.535       .  S
C395        C399   1.528       .  S
C395        C464   1.529       .  S
C396        H403   1.087       .  S
C396        C397   1.362       .  D
C397        C398   1.529       .  S
C398        C402   1.541       .  S
C398        C400   1.538       .  S
C398        H404   1.111       .  S
C399        H405   1.087       .  S
C399        C400   1.365       .  D
C401        H406   1.081       .  S
C401        C402   1.363       .  D
C402        C560   1.472       .  S
C407        C408   1.532       .  S
C407        C413   1.536       .  S
C407        C411   1.526       .  S
C407        C440   1.534       .  S
C408        H415   1.084       .  S
C408        C409   1.360       .  D
C409        C410   1.534       .  S
C410        C414   1.557       .  S
C410        C412   1.540       .  S
C410        H416   1.108       .  S
C411        H417   1.086       .  S
C411        C412   1.364       .  D
C413        H418   1.078       .  S
C413        C414   1.371       .  D
C414        C527   1.498       .  S
C419        C420   1.412   1_455  A
C419        C424   1.393       .  A
C420        C421   1.398       .  A
C421        C422   1.400       .  A
C421        H426   1.084       .  S
C422        C423   1.415   1_655  A
C423        C424   1.395       .  A
C424        H425   1.085       .  S
C427        C432   1.396       .  A
C427        H437   1.084       .  S
C428        C736   1.401       .  A
C428        C429   1.409       .  A
C428        C433   1.467       .  S
C429        C430   1.393       .  A
C429        S434   1.804       .  S
C430        C431   1.401       .  A
C430        H435   1.084       .  S
C431        C741   1.411       .  A
C431        C732   1.471       .  S
C432        S436   1.804       .  S
C433        C438   1.401       .  A
C433        C442   1.392       .  A
S434        H450   1.406       .  S
S436        H447   1.405       .  S
C438        C439   1.399       .  A
C438        S443   1.807       .  S
C439        C440   1.414       .  A
C439        H444   1.076       .  S
C440        C441   1.432       .  A
C441        C442   1.392       .  A
C441        S445   1.807       .  S
C442        H446   1.085       .  S
S443        H448   1.407       .  S
S445        H449   1.402       .  S
C451        C452   1.400       .  A
C451        C456   1.393       .  A
C451        H461   1.084       .  S
C452        C762   1.412       .  A
C452        C457   1.466       .  S
C453        C454   1.395       .  A
C453        S458   1.805       .  S
C454        H459   1.084       .  S
C455        C763   1.399       .  A
C455        C456   1.411       .  A
C455        C728   1.468       .  S
C456        S460   1.805       .  S
C457        C462   1.402       .  A
C457        C466   1.395       .  A
S458        H474   1.405       .  S
S460        H471   1.405       .  S
C462        C463   1.398       .  A
C462        S776   1.808       .  S
C463        C464   1.412       .  A
C463        H468   1.074       .  S
C464        C465   1.424       .  A
C465        C466   1.396       .  A
C465        S469   1.810       .  S
C466        H470   1.084       .  S
S467        H472   1.407       .  S
S469        H473   1.406   1_455  S
C475        C476   1.395       .  A
C475        C480   1.398       .  A
C475        H794   1.083       .  S
C476        C477   1.405       .  A
C476        C481   1.469       .  S
C477        C478   1.397       .  A
C477        S482   1.805       .  S
C478        C479   1.414       .  A
C478        H483   1.078       .  S
C479        C480   1.426       .  A
C480        S793   1.812       .  S
C481        C795   1.407       .  A
C481        C490   1.399       .  A
S482        H498   1.405       .  S
C486        C487   1.401       .  A
C486        S491   1.806       .  S
C487        H492   1.083       .  S
C488        C796   1.401       .  A
C488        C489   1.413       .  A
C488        C731   1.472       .  S
C489        C490   1.394       .  A
C489        S493   1.806       .  S
C490        H494   1.084       .  S
S491        H496   1.407       .  S
S493        H497   1.405       .  S
H495        S793   1.407       .  S
C499        C504   1.396       .  A
C499        H509   1.084       .  S
C500        C808   1.403       .  A
C500        C501   1.414       .  A
C500        C505   1.479       .  S
C501        C502   1.398       .  A
C501        S506   1.804       .  S
C502        C503   1.401       .  A
C502        H507   1.084       .  S
C503        C813   1.410       .  A
C503        C729   1.473       .  S
C504        S508   1.805       .  S
C505        C510   1.408       .  A
C505        C514   1.405       .  A
S506        H522   1.406       .  S
S508        H519   1.406       .  S
C510        C511   1.397       .  A
C510        S515   1.808       .  S
C511        C512   1.405       .  A
C511        H516   1.083       .  S
C512        C513   1.408       .  A
C513        C514   1.403       .  A
C513        S517   1.802       .  S
C514        H518   1.083       .  S
S515        H520   1.407       .  S
S517        H521   1.407       .  S
C523        C524   1.399       .  A
C523        C528   1.398       .  A
C523        H533   1.083       .  S
C524        C525   1.407       .  A
C524        C529   1.487       .  S
C525        C526   1.400       .  A
C525        S530   1.795       .  S
C526        C527   1.404       .  A
C526        H531   1.080       .  S
C527        C528   1.425       .  A
C528        S532   1.805       .  S
C529        C534   1.412       .  A
C529        C847   1.406       .  A
S530        H546   1.407   1_545  S
S532        H543   1.408       .  S
C534        C535   1.401       .  A
C534        S539   1.808       .  S
C535        C536   1.404       .  A
C535        H540   1.083       .  S
C536        C846   1.411       .  A
C536        C623   1.485       .  S
C537        C538   1.395       .  A
C537        S541   1.804       .  S
C538        H542   1.084       .  S
S539        H544   1.407       .  S
S541        H545   1.406       .  S
C547        C548   1.405       .  A
C547        C552   1.388       .  A
C547        H557   1.084       .  S
C548        C858   1.416       .  A
C548        C553   1.483       .  S
C549        C550   1.401       .  A
C549        S554   1.805       .  S
C550        H555   1.084       .  S
C551        C859   1.403       .  A
C551        C552   1.409       .  A
C552        S556   1.806       .  S
C553        C558   1.416       .  A
C553        C562   1.404       .  A
S554        H570   1.405       .  S
S556        H567   1.405       .  S
C558        C559   1.404       .  A
C558        S872   1.810       .  S
C559        C560   1.403       .  A
C559        H564   1.082       .  S
C560        C561   1.409       .  A
C561        C562   1.391       .  A
C561        S565   1.805       .  S
C562        H566   1.084       .  S
S563        H568   1.407       .  S
S565        H569   1.407       .  S
C571        C572   1.399       .  A
C571        C576   1.403       .  A
C571        H890   1.083       .  S
C572        C573   1.411       .  A
C572        C577   1.486       .  S
C573        C574   1.394       .  A
C573        S578   1.798       .  S
C574        C575   1.408       .  A
C574        H579   1.074       .  S
C575        C576   1.427       .  A
C576        S889   1.813       .  S
C577        C582   1.412       .  A
C577        C586   1.404       .  A
S578        H594   1.402       .  S
C582        C583   1.403       .  A
C582        S587   1.807       .  S
C583        C584   1.403       .  A
C583        H588   1.083       .  S
C584        C585   1.410       .  A
C585        C586   1.397       .  A
C585        S898   1.803       .  S
C586        H590   1.084       .  S
S587        H592   1.407       .  S
S589        H593   1.405       .  S
H591        S889   1.406       .  S
C595        C596   1.405       .  A
C595        C909   1.396       .  A
C595        H914   1.084       .  S
C596        C597   1.414       .  A
C596        C601   1.477       .  S
C597        C598   1.397       .  A
C597        S602   1.808       .  S
C598        C599   1.403       .  A
C598        H603   1.084       .  S
C599        C909   1.409       .  A
C599        C619   1.472       .  S
C600        S604   1.809       .  S
C601        C606   1.405       .  A
C601        C610   1.398       .  A
S602        H618   1.402       .  S
S604        H615   1.401       .  S
C606        C607   1.404       .  A
C606        S611   1.806       .  S
C607        C608   1.414       .  A
C607        H612   1.082       .  S
C608        C609   1.416       .  A
C609        C610   1.394       .  A
C609        S613   1.787       .  S
C610        H614   1.085       .  S
S611        H616   1.406       .  S
S613        H617   1.407       .  S
C619        C624   1.398       .  A
C620        C621   1.392       .  A
C620        C893   1.475       .  S
C621        C622   1.395       .  A
C621        H626   1.085       .  S
C622        C860   1.470       .  S
C623        C624   1.399       .  A
C624        H625   1.084       .  S
C627        C628   1.526       .  S
C627        C633   1.541       .  S
C627        C631   1.538       .  S
C627        C884   1.537       .  S
C628        H635   1.087       .  S
C628        C629   1.362       .  D
C629        C630   1.547       .  S
C629        C821   1.480       .  S
C630        C634   1.538       .  S
C630        C632   1.535       .  S
C630        H636   1.111       .  S
C631        H637   1.087   1_556  S
C631        C632   1.367       .  D
C632        C659   1.471   1_556  S
C633        H638   1.079       .  S
C633        C634   1.364       .  D
C634        C639   1.475       .  S
C639        C676   1.462       .  S
C639        N657   1.348       .  A
N640        N657   1.317       .  A
N640        N662   1.318       .  A
N640       Co677   2.071       .  S
C641        N666   1.343       .  A
H642        C683   1.082       .  S
C643        C647   1.446       .  S
C643        H672   1.081       .  S
C643        N667   1.329       .  A
Co644       N662   2.087   1_455  S
Co644       N652   2.055       .  S
Co644       N684   2.081   1_455  S
Co644       N660   2.061       .  S
Co644      Cl688   2.438       .  S
N645        C683   1.352       .  A
N645        N652   1.323       .  A
N645       Co646   2.116   1_565  S
Co646       N649   2.101       .  S
Co646       N666   2.084   1_545  S
Co646       N653   2.113       .  S
Co646      Cl688   2.470   1_545  S
C647        C718   1.468       .  S
C647        N685   1.355       .  A
N648        N655   1.319       .  A
N648        N678   1.324       .  A
N648       Co681   2.075   1_655  S
N649        N667   1.321       .  A
N649        N685   1.331       .  A
N650        N660   1.316       .  A
H651        C676   1.081       .  S
N652        N673   1.316       .  A
N653        N671   1.320       .  A
N653        N658   1.332       .  A
C654        C721   1.480   1_554  S
N655        C670   1.341       .  A
N655       Co677   2.086   1_545  S
C656        N684   1.346       .  A
N660        N666   1.321       .  A
N661        C687   1.340       .  A
N661        N663   1.316       .  A
N661       Co677   2.072   1_545  S
N662        C676   1.348       .  A
N663        N691   1.319       .  A
N663       Co681   2.069   1_655  S
N667       Co681   2.059       .  S
N668        N680   1.318       .  A
N668        N684   1.318       .  A
N668       Co677   2.069       .  S
C669        C683   1.471       .  S
C669        C709   1.471       .  S
C669        N673   1.339       .  A
C670        C689   1.460       .  S
C670        H674   1.081       .  S
N671        C682   1.331       .  A
N671       Co681   2.065       .  S
C675        C694   1.467   1_554  S
Co677      Cl688   2.443   1_655  S
N678        C689   1.348       .  A
C679        C706   1.459   1_554  S
Co681      Cl688   2.434   1_545  S
C689        C697   1.472       .  S
C692        C693   1.531       .  S
C692        C698   1.540       .  S
C692        C696   1.541       .  S
C692        C788   1.536       .  S
C693        H700   1.086   1_556  S
C693        C694   1.360       .  D
C694        C695   1.535       .  S
C695        C699   1.543       .  S
C695        C697   1.532       .  S
C695        H701   1.110       .  S
C696        H702   1.086       .  S
C696        C697   1.367       .  D
C698        H703   1.082       .  S
C698        C699   1.367       .  D
C699        C917   1.485       .  S
C704        C705   1.531       .  S
C704        C710   1.536       .  S
C704        C708   1.534       .  S
C704        C773   1.531       .  S
C705        H712   1.087   1_556  S
C705        C706   1.360       .  D
C706        C707   1.531       .  S
C707        C711   1.536       .  S
C707        C709   1.532       .  S
C707        H713   1.111       .  S
C708        H714   1.087       .  S
C708        C709   1.370       .  D
C710        H715   1.081       .  S
C710        C711   1.363       .  D
C711        C869   1.464       .  S
C716        C717   1.538       .  S
C716        C722   1.533       .  S
C716        C720   1.520       .  S
C716        C749   1.534       .  S
C717        H724   1.082       .  S
C717        C718   1.365       .  D
C718        C719   1.530       .  S
C719        C723   1.554       .  S
C719        C721   1.545       .  S
C719        H725   1.109       .  S
C720        H726   1.086   1_556  S
C720        C721   1.363       .  D
C722        H727   1.081       .  S
C722        C723   1.368       .  D
C723        C836   1.491       .  S
C728        C729   1.411   1_455  A
C728        C733   1.392       .  A
C729        C730   1.397       .  A
C730        C731   1.398       .  A
C730        H735   1.084       .  S
C731        C732   1.414   1_655  A
C732        C733   1.394       .  A
C733        H734   1.085       .  S
C736        C741   1.395       .  A
C736        H746   1.084       .  S
C737        C738   1.409       .  A
C737        C742   1.470       .  S
C738        C739   1.395       .  A
C738        S743   1.803       .  S
C739        C740   1.403       .  A
C739        H744   1.084       .  S
C741        S745   1.805       .  S
C742        C747   1.401       .  A
C742        C751   1.395       .  A
S743        H759   1.406       .  S
S745        H756   1.405       .  S
C747        C748   1.398       .  A
C747        S752   1.807   1_556  S
C748        C749   1.415       .  A
C748        H753   1.079       .  S
C749        C750   1.430       .  A
C750        C751   1.396       .  A
C750        S754   1.806       .  S
C751        H755   1.085       .  S
S752        H757   1.407       .  S
S754        H758   1.404       .  S
C760        C761   1.399       .  A
C760        C765   1.394       .  A
C760        H770   1.084       .  S
C761        C766   1.470       .  S
C762        C763   1.394       .  A
C762        S767   1.805       .  S
C763        H768   1.084       .  S
C764        C765   1.413       .  A
C765        S769   1.805       .  S
C766        C771   1.403       .  A
C766        C775   1.395       .  A
S767        H783   1.405       .  S
S769        H780   1.404       .  S
C771        C772   1.400       .  A
C772        C773   1.413       .  A
C772        H777   1.074       .  S
C773        C774   1.424       .  A
C774        C775   1.396       .  A
C774        S778   1.810       .  S
C775        H779   1.084       .  S
S776        H781   1.406       .  S
S778        H782   1.406       .  S
C784        C785   1.396       .  A
C784        C789   1.400       .  A
C785        C786   1.405       .  A
C785        C790   1.472       .  S
C786        C787   1.397       .  A
C786        S791   1.805       .  S
C787        C788   1.413       .  A
C787        H792   1.077       .  S
C788        C789   1.427       .  A
C790        C799   1.398       .  A
S791        H807   1.405       .  S
C795        C796   1.400       .  A
C795        S800   1.806       .  S
C796        H801   1.083       .  S
C797        C798   1.413       .  A
C798        C799   1.394       .  A
C798        S802   1.804       .  S
C799        H803   1.084       .  S
S800        H805   1.407       .  S
S802        H806   1.405       .  S
C808        C813   1.394       .  A
C808        H818   1.084       .  S
C809        C810   1.413       .  A
C809        C814   1.481       .  S
C810        C811   1.397       .  A
C810        S815   1.803       .  S
C811        C812   1.401       .  A
C811        H816   1.084       .  S
C813        S817   1.804       .  S
C814        C819   1.408   1_556  A
C814        C823   1.406       .  A
S815        H831   1.406       .  S
S817        H828   1.406       .  S
C819        C820   1.399   1_554  A
C819        S824   1.808       .  S
C820        C821   1.405       .  A
C820        H825   1.083   1_556  S
C821        C822   1.407       .  A
C822        C823   1.404       .  A
C822        S826   1.805       .  S
C823        H827   1.083       .  S
S824        H829   1.407       .  S
S826        H830   1.407       .  S
C832        C833   1.397       .  A
C832        C837   1.396       .  A
C832        H842   1.084       .  S
C833        C834   1.407       .  A
C833        C838   1.480       .  S
C834        C835   1.398       .  A
C834        S839   1.795       .  S
C835        C836   1.401       .  A
C835        H840   1.081       .  S
C836        C837   1.426       .  A
C837        S841   1.805       .  S
C838        C843   1.411       .  A
S839        H855   1.407   1_545  S
S841        H852   1.408       .  S
C843        C844   1.402       .  A
C843        S848   1.807       .  S
C844        C845   1.403       .  A
C844        H849   1.083       .  S
C846        C847   1.399       .  A
C846        S850   1.804       .  S
C847        H851   1.084       .  S
S848        H853   1.407       .  S
S850        H854   1.406       .  S
C856        C857   1.405       .  A
C856        C861   1.386       .  A
C856        H866   1.084       .  S
C857        C862   1.477       .  S
C858        C859   1.402       .  A
C858        S863   1.805       .  S
C859        H864   1.084       .  S
C860        C861   1.408       .  A
C861        S865   1.807       .  S
C862        C867   1.416       .  A
C862        C871   1.403       .  A
S863        H879   1.405       .  S
S865        H876   1.406       .  S
C867        C868   1.401       .  A
C868        C869   1.400       .  A
C868        H873   1.083   1_556  S
C869        C870   1.407       .  A
C870        C871   1.388       .  A
C870        S874   1.805       .  S
C871        H875   1.084       .  S
S872        H877   1.407       .  S
S874        H878   1.407       .  S
C880        C881   1.400       .  A
C880        C885   1.403       .  A
C881        C882   1.407       .  A
C881        C886   1.480       .  S
C882        C883   1.390       .  A
C882        S887   1.799       .  S
C883        C884   1.411       .  A
C883        H888   1.073       .  S
C884        C885   1.425       .  A
C886        C891   1.412       .  A
C886        C895   1.402       .  A
S887        H903   1.405       .  S
C891        C892   1.401       .  A
C891        S896   1.807       .  S
C892        C893   1.402       .  A
C892        H897   1.083       .  S
C893        C894   1.410       .  A
C894        C895   1.394       .  A
C895        H899   1.084   1_556  S
S896        H901   1.407       .  S
S898        H902   1.405       .  S
C904        C905   1.403       .  A
C905        C906   1.412       .  A
C905        C910   1.471       .  S
C906        C907   1.397       .  A
C906        S911   1.806       .  S
C907        C908   1.404       .  A
C907        H912   1.084       .  S
C909        S913   1.808       .  S
C910        C915   1.405       .  A
C910        C919   1.400       .  A
S911        H927   1.403       .  S
S913        H924   1.401       .  S
C915        C916   1.401       .  A
C915        S920   1.806       .  S
C916        C917   1.409       .  A
C916        H921   1.083       .  S
C917        C918   1.413       .  A
C918        C919   1.393       .  A
C918        S922   1.795   1_556  S
C919        H923   1.085       .  S
S920        H925   1.406       .  S
S922        H926   1.406       .  S
