geometry optimzed in LAMMPS
_audit_creation_date              2020-11-30 
_audit_creation_method            'lammps2cif' 
_symmetry_space_group_name_H-M    'P1' 
_symmetry_Int_Tables_number       1 
_symmetry_cell_setting            triclinic 
loop_ 
_symmetry_equiv_pos_as_xyz 
  x,y,z 
_cell_length_a                    40.97313202 
_cell_length_b                    45.31017823353716 
_cell_length_c                    37.910658864242116 
_cell_angle_alpha                 89.99995049472835 
_cell_angle_beta                  90.00333517304145 
_cell_angle_gamma                 89.99418274988068 
loop_ 
_atom_site_label 
_atom_site_type_symbol 
_atom_site_fract_x 
_atom_site_fract_y 
_atom_site_fract_z 
_atom_site_charge 
O1          O  0.50248394  0.05349777  0.33657883    -0.55100
C2          C  0.49544274  0.01239964  0.25325366     0.77500
O3          O  0.45739298  0.09979912  0.24277824    -0.56300
C4          C  0.50016948  0.07784041  0.35242501     0.77500
C5          C  0.56146068  0.08363784  0.25163514     0.79900
Cd6        Cd  0.49764306  0.07071712  0.27805545     1.37500
O7          O  0.49494734  0.01801962  0.28591613    -0.55100
O8          O  0.55400539  0.05968548  0.26636988    -0.53900
C9          C  0.43342557  0.08460782  0.25370908     0.79800
O10         O  0.53938814  0.10322484  0.24939694    -0.55500
O11         O  0.49632886  0.03393367  0.23198575    -0.54700
O12         O  0.49733061  0.10086186  0.33363526    -0.54700
O13         O  0.43915396  0.06529521  0.27677794    -0.53900
C14         C  0.78105021  0.15332348  0.26566678     0.89200
C15         C  0.77711132  0.18464254  0.25054741    -0.51000
C16         C  0.79974752  0.20426712  0.26297070     0.12100
C17         C  0.82409356  0.19067102  0.28950472     0.23100
C18         C  0.81627613  0.14456584  0.25730098    -0.51800
C19         C  0.83877416  0.16403232  0.26978964     0.12200
C20         C  0.78002641  0.15716538  0.30580553    -0.51300
C21         C  0.80256794  0.17667571  0.31838253     0.12800
H22         H  0.75838667  0.19064786  0.23157702     0.17300
H23         H  0.84258346  0.20648784  0.29963429     0.03000
H24         H  0.82283403  0.12495167  0.24241363     0.17600
H25         H  0.76337988  0.14510734  0.32284575     0.17400
C26         C  0.71436578  0.09181576  0.22816183     0.89200
C27         C  0.67920718  0.10094316  0.23628412    -0.51000
C28         C  0.65653581  0.08182638  0.22341177     0.12100
C29         C  0.67097742  0.05510561  0.20364802     0.23100
C30         C  0.71775450  0.06037225  0.24305917    -0.51800
C31         C  0.69494366  0.04106381  0.23029122     0.12200
C32         C  0.71562369  0.08819553  0.18800454    -0.51300
C33         C  0.69288175  0.06904823  0.17507003     0.12800
H34         H  0.67280896  0.12059031  0.25118924     0.17300
H35         H  0.65233348  0.03957683  0.19321785     0.03000
H36         H  0.73627426  0.05404957  0.26211623     0.17600
H37         H  0.73249325  0.10022947  0.17119602     0.17400
O38         O  0.99715748  0.19170174  0.15495987    -0.55100
C39         C  0.99868588  0.23280562  0.23891978     0.77500
O40         O  0.95697832  0.14505234  0.24783707    -0.56300
C41         C  0.99826962  0.16723207  0.13925337     0.77500
C42         C  0.06123136  0.16099597  0.24012812     0.79900
Cd43       Cd  0.99767743  0.17464350  0.21371961     1.37500
O44         O  0.99974037  0.22748111  0.20618577    -0.55100
O45         O  0.05461216  0.18430823  0.22356348    -0.53900
C46         C  0.93355297  0.16205867  0.23970991     0.79800
O47         O  0.03851259  0.14219488  0.24381233    -0.56300
O48         O  0.99714584  0.21110518  0.25988792    -0.54700
O49         O  0.99903848  0.14417512  0.15820255    -0.54700
O50         O  0.93966502  0.18292369  0.21879325    -0.53900
C51         C  0.21359371  0.15192635  0.26537542     0.89200
C52         C  0.17839632  0.14305296  0.25720473    -0.51000
C53         C  0.15590493  0.16252327  0.26964420     0.12100
C54         C  0.17056862  0.18934265  0.28906819     0.23100
C55         C  0.21744983  0.18316624  0.25001704    -0.51800
C56         C  0.19486434  0.20286146  0.26238263     0.12200
C57         C  0.21473051  0.15597101  0.30548668    -0.51300
C58         C  0.19218577  0.17552096  0.31798835     0.12800
H59         H  0.17183837  0.12330935  0.24256128     0.17300
H60         H  0.15207242  0.20517628  0.29914686     0.03000
H61         H  0.23620043  0.18910688  0.23105184     0.17600
H62         H  0.23142852  0.14400276  0.32256372     0.17400
C63         C  0.28063177  0.09070434  0.22820018     0.89200
C64         C  0.27722298  0.05916983  0.24275925    -0.51000
C65         C  0.30038088  0.04007579  0.23028830     0.12100
C66         C  0.32470350  0.05441760  0.20424080     0.23100
C67         C  0.31555418  0.10000595  0.23709495    -0.51800
C68         C  0.33859220  0.08113316  0.22450111     0.12200
C69         C  0.28006207  0.08732348  0.18799292    -0.51300
C70         C  0.30315517  0.06838109  0.17534035     0.12800
H71         H  0.25842045  0.05262451  0.26137836     0.17300
H72         H  0.34363946  0.03906359  0.19405591     0.03000
H73         H  0.32153830  0.11963879  0.25223092     0.17600
H74         H  0.26331958  0.09929546  0.17097158     0.17400
O75         O  0.49732855  0.47648725  0.20778787    -0.55100
C76         C  0.49949531  0.41673450  0.14133932     0.77500
O77         O  0.53988222  0.39220139  0.24577881    -0.56300
C78         C  0.49631374  0.48210159  0.24042397     0.77500
C79         C  0.43440609  0.40956361  0.24046048     0.79900
Cd80       Cd  0.49826650  0.42379044  0.21563104     1.37500
O81         O  0.49963531  0.44112980  0.15724722    -0.55100
O82         O  0.43985432  0.42916949  0.21767387    -0.53900
C83         C  0.56230217  0.41121878  0.24159377     0.79800
O84         O  0.45849331  0.39425931  0.25084030    -0.56300
O85         O  0.49907955  0.39351894  0.16004928    -0.54700
O86         O  0.49585198  0.46056632  0.26169445    -0.54700
O87         O  0.55516684  0.43432950  0.22486821    -0.53900
C88         C  0.78179676  0.34209019  0.22813757     0.89200
C89         C  0.77769062  0.31067031  0.24284326    -0.51000
C90         C  0.80025310  0.29107268  0.23022889     0.12100
C91         C  0.82473359  0.30482031  0.20393162     0.23100
C92         C  0.81703838  0.35067527  0.23669203    -0.51800
C93         C  0.83949585  0.33126575  0.22397424     0.12200
C94         C  0.78082618  0.33861699  0.18796702    -0.51300
C95         C  0.80330850  0.31915042  0.17520305     0.12800
H96         H  0.75887404  0.30456287  0.26165776     0.17300
H97         H  0.84316935  0.28903207  0.19362252     0.03000
H98         H  0.82364085  0.37020213  0.25171695     0.17600
H99         H  0.76424236  0.35086795  0.17104461     0.17400
C100        C  0.71508441  0.40350055  0.26557623     0.89200
C101        C  0.67993328  0.39439154  0.25745538    -0.51000
C102        C  0.65728598  0.41359662  0.27018142     0.12100
C103        C  0.67176065  0.44039672  0.28979311     0.23100
C104        C  0.71856478  0.43486116  0.25048855    -0.51800
C105        C  0.69580498  0.45427615  0.26310773     0.12200
C106        C  0.71631764  0.40728649  0.30570860    -0.51300
C107        C  0.69362692  0.42655790  0.31848657     0.12800
H108        H  0.67352028  0.37468587  0.24266524     0.17300
H109        H  0.65314597  0.45601233  0.30010056     0.03000
H110        H  0.73714867  0.44106811  0.23145424     0.17600
H111        H  0.73319946  0.39534662  0.32260361     0.17400
O112        O  0.99814782  0.26789287  0.28479935    -0.55100
C113        C  0.99943196  0.32810040  0.35253214     0.77500
O114        O  0.04005066  0.35144809  0.24641810    -0.56300
C115        C  0.99908946  0.26274043  0.25202713     0.77500
C116        C  0.93467882  0.33324800  0.25264642     0.79900
Cd117      Cd  0.99896754  0.32059644  0.27811091     1.37500
O118        O  0.99912316  0.30357856  0.33688569    -0.55100
O119        O  0.94135704  0.31135797  0.27177646    -0.53900
C120        C  0.06298990  0.33337790  0.25280969     0.79800
O121        O  0.95767008  0.35117153  0.24591691    -0.56300
O122        O  0.99954069  0.35114319  0.33353273    -0.54700
O123        O  0.00022252  0.28455806  0.23118577    -0.54700
O124        O  0.05639793  0.31132909  0.27172126    -0.53900
C125        C  0.28188840  0.40220344  0.26528614     0.89200
C126        C  0.27840174  0.43351483  0.24998862    -0.51000
C127        C  0.30122944  0.45296619  0.26242458     0.12100
C128        C  0.32529698  0.43917770  0.28914924     0.23100
C129        C  0.31699650  0.39304053  0.25715003    -0.51800
C130        C  0.33967514  0.41227461  0.26967801     0.12200
C131        C  0.28073944  0.40619019  0.30540843    -0.51300
C132        C  0.30348382  0.42550858  0.31800019     0.12800
H133        H  0.25979934  0.43964837  0.23093739     0.17300
H134        H  0.34396874  0.45481026  0.29929491     0.03000
H135        H  0.32336629  0.37327003  0.24245708     0.17600
H136        H  0.26390209  0.39433129  0.32242787     0.17400
C137        C  0.21547222  0.34057203  0.22772052     0.89200
C138        C  0.18039199  0.34963141  0.23614803    -0.51000
C139        C  0.15767538  0.33055585  0.22336395     0.12100
C140        C  0.17197995  0.30390744  0.20335502     0.23100
C141        C  0.21899990  0.30906955  0.24244910    -0.51800
C142        C  0.19611917  0.28978100  0.22974732     0.12200
C143        C  0.21648797  0.33709512  0.18753402    -0.51300
C144        C  0.19369427  0.31795406  0.17468057     0.12800
H145        H  0.17406679  0.36922293  0.25120020     0.17300
H146        H  0.15326589  0.28841383  0.19299782     0.03000
H147        H  0.23761231  0.30271217  0.26138260     0.17600
H148        H  0.23324465  0.34919533  0.17066280     0.17400
O149        O  0.49994840  0.44162362  0.08753723    -0.55100
C150        C  0.49654093  0.48298900  0.50326274     0.77500
O151        O  0.53975880  0.39378963  0.99808290    -0.56300
C152        C  0.49950328  0.41700616  0.10298340     0.77500
C153        C  0.43428616  0.41124597  0.00366134     0.79900
Cd154      Cd  0.49822518  0.42495549  0.02882814     1.37500
O155        O  0.49649990  0.47777824  0.03610059    -0.55100
O156        O  0.43974174  0.43061134  0.02675531    -0.53900
C157        C  0.56233416  0.41253246  0.00304315     0.79800
O158        O  0.45834991  0.39593731  0.99321264    -0.56300
O159        O  0.49673348  0.46123575  0.48234229    -0.54700
O160        O  0.49876059  0.39404528  0.08384350    -0.54700
O161        O  0.55536714  0.43524076  0.02064302    -0.53900
C162        C  0.78140830  0.34230315  0.01544755     0.89200
C163        C  0.81646681  0.35167682  0.00734185    -0.51000
C164        C  0.83928640  0.33262531  0.02000899     0.12100
C165        C  0.82507905  0.30567404  0.03952064     0.23100
C166        C  0.77818929  0.31093830  0.00026315    -0.51800
C167        C  0.80114739  0.29166592  0.01282062     0.12200
C168        C  0.78023468  0.33841574  0.05556667    -0.51300
C169        C  0.80311625  0.31928728  0.06825494     0.12800
H170        H  0.82353158  0.37131238  0.49196071     0.17300
H171        H  0.84384859  0.29018576  0.04977821     0.03000
H172        H  0.75974020  0.30485009  0.48198223     0.17600
H173        H  0.76329630  0.35022701  0.07252265     0.17400
C174        C  0.71541070  0.40401776  0.47846627     0.89200
C175        C  0.71922012  0.43542706  0.49333091    -0.51000
C176        C  0.69655765  0.45492791  0.48067993     0.12100
C177        C  0.67227794  0.44108283  0.45422484     0.23100
C178        C  0.68022972  0.39518611  0.48683465    -0.51800
C179        C  0.65768147  0.41448777  0.47412096     0.12200
C180        C  0.71649692  0.40761255  0.43830874    -0.51300
C181        C  0.69389820  0.42695859  0.42551327     0.12800
H182        H  0.73741773  0.44138917  0.01197911     0.17300
H183        H  0.65373933  0.45676997  0.44390919     0.03000
H184        H  0.67301094  0.37560935  0.00126309     0.17600
H185        H  0.73319130  0.39546748  0.42140716     0.17400
O186        O  0.99926448  0.30379742  0.40678114    -0.55100
C187        C  0.99831724  0.26300113  0.49106478     0.77500
O188        O  0.04018772  0.35287591  0.49595349    -0.56300
C189        C  0.99951963  0.32821793  0.39092428     0.77500
C190        C  0.93495430  0.33485963  0.49052243     0.79900
Cd191      Cd  0.99898297  0.32114246  0.46540998     1.37500
O192        O  0.99830772  0.26834309  0.45833047    -0.55100
O193        O  0.94101881  0.31355428  0.47025125    -0.53900
C194        C  0.06299926  0.33440456  0.49084015     0.79800
O195        O  0.95847546  0.35182726  0.49846103    -0.56300
O196        O  0.99492688  0.28476473  0.01127676    -0.54700
O197        O  0.99973131  0.35136864  0.40972832    -0.54700
O198        O  0.05622770  0.31155079  0.47343875    -0.53900
C199        C  0.21508471  0.34142384  0.01478596     0.89200
C200        C  0.21902038  0.31030625  0.50006113    -0.51000
C201        C  0.19550529  0.29071247  0.01240464     0.12100
C202        C  0.17141027  0.30480773  0.03887573     0.23100
C203        C  0.18003485  0.35067693  0.00641510    -0.51800
C204        C  0.15720371  0.33163519  0.01906795     0.12200
C205        C  0.21608656  0.33772375  0.05493631    -0.51300
C206        C  0.19322606  0.31859498  0.06764721     0.12800
H207        H  0.23761701  0.30395629  0.48110876     0.17300
H208        H  0.15264470  0.28932390  0.04914136     0.03000
H209        H  0.17466686  0.37091441  0.49221175     0.17600
H210        H  0.23297616  0.34959330  0.07188968     0.17400
C211        C  0.28243584  0.40328940  0.47809319     0.89200
C212        C  0.31767422  0.39460807  0.48636451    -0.51000
C213        C  0.34009242  0.41398373  0.47356650     0.12100
C214        C  0.32532810  0.44050347  0.45367586     0.23100
C215        C  0.27852173  0.43470570  0.49294458    -0.51800
C216        C  0.30107854  0.45428189  0.48021792     0.12200
C217        C  0.28122757  0.40684904  0.43793861    -0.51300
C218        C  0.30369069  0.42626923  0.42504055     0.12800
H219        H  0.32349466  0.37462169  0.00124527     0.17300
H220        H  0.34377421  0.45624367  0.44329191     0.03000
H221        H  0.25925378  0.44055101  0.01160272     0.17600
H222        H  0.26455866  0.39461147  0.42110389     0.17400
O223        O  0.50185081  0.05338760  0.40662456    -0.55100
C224        C  0.49515750  0.01286240  0.49097177     0.77500
O225        O  0.54001084  0.10376320  0.49158891    -0.56300
C226        C  0.50005421  0.07779471  0.39080516     0.77500
C227        C  0.43361772  0.08493323  0.48978425     0.79900
Cd228      Cd  0.49758637  0.07077325  0.46519749     1.37500
O229        O  0.49575413  0.01804391  0.45818900    -0.55100
O230        O  0.43902814  0.06606080  0.46609928    -0.53900
C231        C  0.56156560  0.08362770  0.49099051     0.79800
O232        O  0.45780234  0.09962239  0.50113272    -0.56300
O233        O  0.49548624  0.03466183  0.01139683    -0.54700
O234        O  0.49756568  0.10082845  0.40961521    -0.54700
O235        O  0.55347369  0.05901829  0.47834575    -0.53900
C236        C  0.78147522  0.15408840  0.47837444     0.89200
C237        C  0.81662932  0.14482477  0.48620369    -0.51000
C238        C  0.83928042  0.16397687  0.47339411     0.12100
C239        C  0.82483201  0.19087769  0.45398063     0.23100
C240        C  0.77824218  0.18543521  0.49361497    -0.51800
C241        C  0.80102288  0.20479229  0.48088144     0.12200
C242        C  0.78002532  0.15800051  0.43826526    -0.51300
C243        C  0.80274446  0.17719381  0.42539060     0.12800
H244        H  0.82320514  0.12490032  0.99992413     0.17300
H245        H  0.84347009  0.20643503  0.44360052     0.03000
H246        H  0.76020959  0.19169721  0.01239913     0.17600
H247        H  0.76304431  0.14611812  0.42143377     0.17400
C248        C  0.71492376  0.09272731  0.01531011     0.89200
C249        C  0.71841082  0.06121377  0.50058940    -0.51000
C250        C  0.69587895  0.04187057  0.01293780     0.12100
C251        C  0.67145847  0.05580700  0.03914517     0.23100
C252        C  0.67984622  0.10166392  0.00659156    -0.51800
C253        C  0.65713166  0.08244695  0.01910910     0.12200
C254        C  0.71566625  0.08913704  0.05548756    -0.51300
C255        C  0.69291246  0.06983196  0.06805650     0.12800
H256        H  0.73727598  0.05499653  0.48188534     0.17300
H257        H  0.65277715  0.04018186  0.04928557     0.03000
H258        H  0.67312140  0.12116583  0.49161188     0.17600
H259        H  0.73232978  0.10116134  0.07254359     0.17400
O260        O  0.99838058  0.19169115  0.08511135    -0.55100
C261        C  0.99803504  0.23296946  0.50396666     0.77500
O262        O  0.03944943  0.14177996  0.99864528    -0.56300
C263        C  0.99852533  0.16720068  0.10086047     0.77500
C264        C  0.93415980  0.15978795  0.00100914     0.79900
Cd265      Cd  0.99759663  0.17447412  0.02653997     1.37500
O266        O  0.99559104  0.22730030  0.03473132    -0.55100
O267        O  0.93884722  0.17603042  0.02748010    -0.53900
C268        C  0.06175642  0.16104741  0.00182022     0.79800
O269        O  0.95892767  0.14758300  0.98726357    -0.56300
O270        O  0.99717473  0.21131136  0.48287964    -0.54700
O271        O  0.99870111  0.14406963  0.08197572    -0.54700
O272        O  0.05443516  0.18483186  0.01705630    -0.53900
C273        C  0.28155008  0.09159659  0.01548008     0.89200
C274        C  0.31662976  0.10051320  0.00676465    -0.51000
C275        C  0.33935363  0.08131486  0.01933755     0.12100
C276        C  0.32501454  0.05469332  0.03941289     0.23100
C277        C  0.27773918  0.06014753  0.00073778    -0.51800
C278        C  0.30057590  0.04072615  0.01319662     0.12200
C279        C  0.28080574  0.08807514  0.05566222    -0.51300
C280        C  0.30356990  0.06880482  0.06830186     0.12800
H281        H  0.32231591  0.12090632  0.49160585     0.17300
H282        H  0.34369278  0.03907951  0.04959108     0.03000
H283        H  0.25854678  0.05448082  0.48127470     0.17600
H284        H  0.26416031  0.10016071  0.07268073     0.17400
C285        C  0.21394526  0.15334017  0.47782640     0.89200
C286        C  0.21756229  0.18472386  0.49279314    -0.51000
C287        C  0.19479299  0.20414887  0.48021963     0.12100
C288        C  0.17056771  0.19024663  0.45373542     0.23100
C289        C  0.17882967  0.14430080  0.48617472    -0.51800
C290        C  0.15615145  0.16351675  0.47355050     0.12200
C291        C  0.21499357  0.15704039  0.43768183    -0.51300
C292        C  0.19226718  0.17630070  0.42495708     0.12800
H293        H  0.23663439  0.19055928  0.01205803     0.17300
H294        H  0.15192877  0.20586844  0.44348903     0.03000
H295        H  0.17312379  0.12402235  0.00115371     0.17600
H296        H  0.23175770  0.14502162  0.42073425     0.17400
C297        C  0.23792027  0.13190154  0.49117644    -0.10600
C298        C  0.25754752  0.11305830  0.00219749    -0.12100
C299        C  0.09422923  0.15711970  0.98868721    -0.10600
C300        C  0.12187769  0.15955063  0.48048466    -0.12100
C301        C  0.87360030  0.15979986  0.47975942    -0.10600
C302        C  0.90194735  0.15701919  0.98683047    -0.12100
C303        C  0.75751862  0.13263884  0.49181016    -0.10600
C304        C  0.73888807  0.11423487  0.00208345    -0.12100
C305        C  0.59413497  0.08761642  0.50381295    -0.10600
C306        C  0.62285923  0.08642110  0.01220134    -0.12100
C307        C  0.40126623  0.08810499  0.50355243    -0.10600
C308        C  0.37362640  0.08536774  0.01244357    -0.12100
C309        C  0.30220012  0.48499531  0.49153808    -0.10600
C310        C  0.30168912  0.00999935  0.00189220    -0.12100
C311        C  0.19406322  0.25995830  0.00122883    -0.10600
C312        C  0.19378833  0.23489917  0.49135829    -0.12100
C313        C  0.25878142  0.38159849  0.49155014    -0.10600
C314        C  0.23915974  0.36282789  0.00150640    -0.12100
C315        C  0.09541014  0.33815179  0.50422717    -0.10600
C316        C  0.12290446  0.33603886  0.01258911    -0.12100
C317        C  0.69550246  0.48566445  0.49186609    -0.10600
C318        C  0.69468540  0.01114076  0.00174037    -0.12100
C319        C  0.80250922  0.23548547  0.49223216    -0.10600
C320        C  0.80270175  0.26098028  0.00145006    -0.12100
C321        C  0.90258208  0.33841796  0.50410608    -0.10600
C322        C  0.87357540  0.33708459  0.01368213    -0.12100
C323        C  0.75735235  0.36369421  0.00213860    -0.10600
C324        C  0.73923790  0.38245919  0.49184890    -0.12100
C325        C  0.62335872  0.41066430  0.48089518    -0.10600
C326        C  0.59468043  0.40920532  0.98926056    -0.12100
C327        C  0.40202137  0.40809341  0.98961972    -0.10600
C328        C  0.37441649  0.41030084  0.48037219    -0.12100
C329        C  0.18950250  0.31375241  0.10518610    -0.10600
C330        C  0.18968245  0.31355301  0.13709675    -0.12100
C331        C  0.30729604  0.43050579  0.35551399    -0.10600
C332        C  0.30739138  0.43077934  0.38743085    -0.12100
C333        C  0.25803330  0.38061345  0.25199334    -0.10600
C334        C  0.23935538  0.36203106  0.24125208    -0.12100
C335        C  0.09530085  0.33660835  0.23902825    -0.10600
C336        C  0.12343409  0.33466824  0.23016389    -0.12100
C337        C  0.68998281  0.43140232  0.35603319    -0.10600
C338        C  0.69006298  0.43154416  0.38794350    -0.12100
C339        C  0.80705755  0.31445985  0.13766337    -0.10600
C340        C  0.80697466  0.31450839  0.10576610    -0.12100
C341        C  0.87389398  0.33492941  0.23064514    -0.10600
C342        C  0.90218662  0.33654997  0.23916885    -0.12100
C343        C  0.75800836  0.36369040  0.24152322    -0.10600
C344        C  0.73905279  0.38207439  0.25216767    -0.12100
C345        C  0.37394727  0.40811312  0.26304494    -0.10600
C346        C  0.40211863  0.40622296  0.25428955    -0.12100
C347        C  0.59470090  0.40772855  0.25514625    -0.10600
C348        C  0.62295029  0.40950029  0.26370506    -0.12100
C349        C  0.30738835  0.06395328  0.13777500    -0.10600
C350        C  0.30751137  0.06408543  0.10585405    -0.12100
C351        C  0.30184307  0.00932966  0.24139765    -0.10600
C352        C  0.30264702  0.48360019  0.25080294    -0.12100
C353        C  0.18842305  0.18064265  0.35547619    -0.10600
C354        C  0.18840803  0.18091365  0.38738908    -0.12100
C355        C  0.19451738  0.25906904  0.24104475    -0.10600
C356        C  0.19407961  0.23355399  0.25091936    -0.12100
C357        C  0.25633262  0.11185778  0.24152641    -0.10600
C358        C  0.23736401  0.13022796  0.25217814    -0.12100
C359        C  0.12158206  0.15866146  0.26295760    -0.10600
C360        C  0.09340902  0.15708630  0.25408350    -0.12100
C361        C  0.68904594  0.06463012  0.13746935    -0.10600
C362        C  0.68903111  0.06490683  0.10556008    -0.12100
C363        C  0.69341762  0.01036906  0.24162041    -0.10600
C364        C  0.69452136  0.48495601  0.25168744    -0.12100
C365        C  0.80635246  0.18166207  0.35589451    -0.10600
C366        C  0.80640839  0.18184595  0.38780798    -0.12100
C367        C  0.80110126  0.26035374  0.24143536    -0.10600
C368        C  0.80090444  0.23487437  0.25136288    -0.12100
C369        C  0.87310022  0.16046250  0.26273949    -0.10600
C370        C  0.90125624  0.15891091  0.25372937    -0.12100
C371        C  0.75724483  0.13163897  0.25241464    -0.10600
C372        C  0.73834505  0.11320281  0.24172849    -0.12100
C373        C  0.59388797  0.08747493  0.23829022    -0.10600
C374        C  0.62218767  0.08588907  0.22986573    -0.12100
C375        C  0.40098282  0.08769985  0.24013321    -0.10600
C376        C  0.37279946  0.08558844  0.23142581    -0.12100
O377        O  0.50230260  0.05307766  0.83630696    -0.55100
C378        C  0.49508302  0.01174208  0.75352064     0.77500
O379        O  0.45797321  0.09780407  0.74027849    -0.56300
C380        C  0.50018886  0.07750322  0.85202590     0.77500
C381        C  0.56153779  0.08315796  0.75152370     0.79900
Cd382      Cd  0.49765355  0.07017918  0.77771729     1.37500
O383        O  0.49611225  0.01745841  0.78614912    -0.55100
O384        O  0.55350195  0.05854507  0.76418743    -0.53900
C385        C  0.43364711  0.08408150  0.75290049     0.79800
O386        O  0.53996263  0.10327757  0.75104846    -0.55500
O387        O  0.49458153  0.03320120  0.73214502    -0.54700
O388        O  0.49744028  0.10047220  0.83312411    -0.54700
O389        O  0.43893775  0.06647086  0.77796703    -0.53900
C390        C  0.78132851  0.15328245  0.76496656     0.89200
C391        C  0.77773645  0.18455384  0.74962356    -0.51000
C392        C  0.80037537  0.20410614  0.76219530     0.12100
C393        C  0.82440058  0.19046829  0.78905139     0.23100
C394        C  0.81655038  0.14426732  0.75704197    -0.51800
C395        C  0.83905601  0.16363027  0.76970726     0.12200
C396        C  0.77996346  0.15728983  0.80507038    -0.51300
C397        C  0.80253273  0.17671378  0.81776487     0.12800
H398        H  0.75917010  0.19060308  0.73049176     0.17300
H399        H  0.84291258  0.20620759  0.79930595     0.03000
H400        H  0.82311318  0.12449121  0.74246506     0.17600
H401        H  0.76312232  0.14535689  0.82201169     0.17400
C402        C  0.71457420  0.09178099  0.72783273     0.89200
C403        C  0.67946315  0.10080133  0.73635776    -0.51000
C404        C  0.65675006  0.08161313  0.72373026     0.12100
C405        C  0.67110849  0.05493754  0.70381396     0.23100
C406        C  0.71824247  0.06035811  0.74269375    -0.51800
C407        C  0.69538316  0.04098288  0.73019163     0.12200
C408        C  0.71546688  0.08817169  0.68767394    -0.51300
C409        C  0.69268424  0.06895135  0.67500073     0.12800
H410        H  0.67312823  0.12045349  0.75128531     0.17300
H411        H  0.65242975  0.03934774  0.69358829     0.03000
H412        H  0.73695789  0.05410299  0.76155962     0.17600
H413        H  0.73213880  0.10024947  0.67067933     0.17400
O414        O  0.99471855  0.19114642  0.65772552    -0.55100
C415        C  0.00112595  0.23217030  0.74095561     0.77500
O416        O  0.95614778  0.14174431  0.74456274    -0.56300
C417        C  0.99660201  0.16680381  0.64182626     0.77500
C418        C  0.06200152  0.15972852  0.74148233     0.79900
Cd419      Cd  0.99832119  0.17390374  0.71621199     1.37500
O420        O  0.00113441  0.22657979  0.70827195    -0.55100
O421        O  0.05656727  0.17970373  0.71915934    -0.53900
C422        C  0.93431308  0.16153852  0.74230740     0.79800
O423        O  0.03796775  0.14408323  0.75126447    -0.56300
O424        O  0.00022249  0.21063371  0.76222034    -0.54700
O425        O  0.99877463  0.14369979  0.66056593    -0.54700
O426        O  0.94209327  0.18548060  0.72774899    -0.53900
C427        C  0.21451945  0.15166578  0.76547060     0.89200
C428        C  0.17931414  0.14269691  0.75750763    -0.51000
C429        C  0.15683382  0.16210952  0.77008332     0.12100
C430        C  0.17148842  0.18897513  0.78937176     0.23100
C431        C  0.21820148  0.18290541  0.75005378    -0.51800
C432        C  0.19559346  0.20253701  0.76253008     0.12200
C433        C  0.21583250  0.15573651  0.80557036    -0.51300
C434        C  0.19327123  0.17522264  0.81817117     0.12800
H435        H  0.17273717  0.12290194  0.74297252     0.17300
H436        H  0.15297970  0.20475517  0.79954639     0.03000
H437        H  0.23682885  0.18888435  0.73096458     0.17600
H438        H  0.23260302  0.14378088  0.82257608     0.17400
C439        C  0.28102424  0.09017272  0.72790401     0.89200
C440        C  0.27755462  0.05861795  0.74241015    -0.51000
C441        C  0.30047967  0.03942805  0.72962268     0.12100
C442        C  0.32464079  0.05371703  0.70334956     0.23100
C443        C  0.31607600  0.09927614  0.73643912    -0.51800
C444        C  0.33887619  0.08031773  0.72354235     0.12200
C445        C  0.28004973  0.08688919  0.68771104    -0.51300
C446        C  0.30290191  0.06787069  0.67474681     0.12800
H447        H  0.25889781  0.05213391  0.76122958     0.17300
H448        H  0.34339129  0.03830261  0.69289950     0.03000
H449        H  0.32232159  0.11884200  0.75157685     0.17600
H450        H  0.26325791  0.09902405  0.67090991     0.17400
O451        O  0.49706670  0.47621095  0.70797138    -0.55100
C452        C  0.49986836  0.41660293  0.64118432     0.77500
O453        O  0.54011699  0.39244189  0.74662092    -0.56300
C454        C  0.49717612  0.48174770  0.74064882     0.77500
C455        C  0.43499458  0.40970998  0.74047848     0.79900
Cd456      Cd  0.49884372  0.42359970  0.71547687     1.37500
O457        O  0.50056755  0.44097131  0.65712572    -0.55100
O458        O  0.44083449  0.43070625  0.71966969    -0.53900
C459        C  0.56285439  0.41091400  0.74117602     0.79800
O460        O  0.45865943  0.39305599  0.74885962    -0.56300
O461        O  0.49890755  0.39338518  0.65985577    -0.54700
O462        O  0.49789564  0.46017475  0.76186899    -0.54700
O463        O  0.55603460  0.43347635  0.72326420    -0.53900
C464        C  0.78250956  0.34209148  0.72815124     0.89200
C465        C  0.77824595  0.31056775  0.74250738    -0.51000
C466        C  0.80091816  0.29104373  0.72994180     0.12100
C467        C  0.82562738  0.30495452  0.70403314     0.23100
C468        C  0.81768379  0.35058706  0.73716597    -0.51800
C469        C  0.84023276  0.33123787  0.72450308     0.12200
C470        C  0.78189619  0.33889148  0.68794153    -0.51300
C471        C  0.80446751  0.31949159  0.67522362     0.12800
H472        H  0.75927660  0.30434887  0.76108701     0.17300
H473        H  0.84414016  0.28922264  0.69376168     0.03000
H474        H  0.82417152  0.37000490  0.75244730     0.17600
H475        H  0.76544277  0.35123857  0.67096869     0.17400
C476        C  0.71559769  0.40345644  0.76529587     0.89200
C477        C  0.68048531  0.39426093  0.75713280    -0.51000
C478        C  0.65777978  0.41345786  0.76974419     0.12100
C479        C  0.67214264  0.44033076  0.78928102     0.23100
C480        C  0.71903149  0.43478637  0.75009647    -0.51800
C481        C  0.69619774  0.45418301  0.76260450     0.12200
C482        C  0.71674166  0.40735340  0.80542188    -0.51300
C483        C  0.69397357  0.42661285  0.81807148     0.12800
H484        H  0.67413891  0.37450104  0.74241217     0.17300
H485        H  0.65346683  0.45593467  0.79948841     0.03000
H486        H  0.73764336  0.44098823  0.73109228     0.17600
H487        H  0.73359464  0.39547154  0.82240609     0.17400
O488        O  0.00007125  0.26784730  0.78624267    -0.55100
C489        C  0.99966937  0.32834319  0.85273784     0.77500
O490        O  0.03970404  0.34982850  0.74260014    -0.56300
C491        C  0.00148721  0.26225810  0.75358617     0.77500
C492        C  0.93557136  0.33262761  0.75288615     0.79900
Cd493      Cd  0.00005906  0.32053407  0.77834424     1.37500
O494        O  0.00061726  0.30376096  0.83725488    -0.55100
O495        O  0.94367857  0.30859330  0.76704280    -0.53900
C496        C  0.06367848  0.33411866  0.75243354     0.79800
O497        O  0.95724789  0.35258073  0.75076901    -0.56300
O498        O  0.99875693  0.35127438  0.83358160    -0.54700
O499        O  0.00263170  0.28380536  0.73234102    -0.54700
O500        O  0.05823670  0.31443239  0.77510659    -0.53900
C501        C  0.28254614  0.40163893  0.76530795     0.89200
C502        C  0.27889822  0.43291136  0.74996442    -0.51000
C503        C  0.30162789  0.45245899  0.76237280     0.12100
C504        C  0.32576195  0.43880184  0.78911509     0.23100
C505        C  0.31768838  0.39259936  0.75717467    -0.51800
C506        C  0.34026760  0.41193927  0.76967402     0.12200
C507        C  0.28136908  0.40565223  0.80541419    -0.51300
C508        C  0.30400648  0.42507690  0.81797614     0.12800
H509        H  0.26026278  0.43895168  0.73090838     0.17300
H510        H  0.34435198  0.45452312  0.79923884     0.03000
H511        H  0.32415055  0.37284616  0.74249478     0.17600
H512        H  0.26456499  0.39376364  0.82244386     0.17400
C513        C  0.21609816  0.34010362  0.72785213     0.89200
C514        C  0.18104956  0.34939344  0.73606224    -0.51000
C515        C  0.15825882  0.33042503  0.72320699     0.12100
C516        C  0.17246947  0.30362015  0.70342238     0.23100
C517        C  0.21937080  0.30864083  0.74271600    -0.51800
C518        C  0.19643365  0.28944082  0.72997109     0.12200
C519        C  0.21726444  0.33651800  0.68769702    -0.51300
C520        C  0.19438820  0.31747804  0.67482328     0.12800
H521        H  0.17479360  0.36910011  0.75093215     0.17300
H522        H  0.15370153  0.28820227  0.69301860     0.03000
H523        H  0.23791596  0.30222307  0.76169849     0.17600
H524        H  0.23413518  0.34851504  0.67085240     0.17400
O525        O  0.50076901  0.44153814  0.58743361    -0.55100
C526        C  0.49637407  0.48301904  0.00334186     0.77500
O527        O  0.54015739  0.39367631  0.49817500    -0.56300
C528        C  0.49987328  0.41690928  0.60283929     0.77500
C529        C  0.43475311  0.41133969  0.50360086     0.79900
Cd530      Cd  0.49863355  0.42493557  0.52876016     1.37500
O531        O  0.49702677  0.47775075  0.53601352    -0.55100
O532        O  0.44008992  0.43002289  0.52752489    -0.53900
C533        C  0.56276255  0.41236752  0.50325684     0.79800
O534        O  0.45891071  0.39652273  0.49242168    -0.56300
O535        O  0.49683127  0.46126489  0.98241937    -0.54700
O536        O  0.49869674  0.39397147  0.58367719    -0.54700
O537        O  0.55578884  0.43509545  0.52081486    -0.53900
C538        C  0.78223053  0.34257609  0.51555285     0.89200
C539        C  0.81728335  0.35164238  0.50689988    -0.51000
C540        C  0.84007068  0.33249422  0.51944507     0.12100
C541        C  0.82582888  0.30577886  0.53939878     0.23100
C542        C  0.77855939  0.31114285  0.50070577    -0.51800
C543        C  0.80147427  0.29178147  0.51314268     0.12200
C544        C  0.78146662  0.33895741  0.55571529    -0.51300
C545        C  0.80430466  0.31973759  0.56828674     0.12800
H546        H  0.82270223  0.37148172  0.99265184     0.17300
H547        H  0.84456203  0.29021022  0.54955895     0.03000
H548        H  0.75963139  0.30462646  0.98124605     0.17600
H549        H  0.76477737  0.35095718  0.57277140     0.17400
C550        C  0.71486831  0.40389336  0.97808007     0.89200
C551        C  0.71874840  0.43528962  0.99299121    -0.51000
C552        C  0.69619446  0.45487465  0.98027832     0.12100
C553        C  0.67195115  0.44111479  0.95371860     0.23100
C554        C  0.67963063  0.39517058  0.98630725    -0.51800
C555        C  0.65719190  0.41455274  0.97354878     0.12200
C556        C  0.71610061  0.40751595  0.93793599    -0.51300
C557        C  0.69362412  0.42694608  0.92507525     0.12800
H558        H  0.73793224  0.44160032  0.51223710     0.17300
H559        H  0.65350313  0.45686485  0.94334960     0.03000
H560        H  0.67372709  0.37559938  0.50180245     0.17600
H561        H  0.73281624  0.39534248  0.92108730     0.17400
O562        O  0.00041887  0.30433345  0.90717056    -0.55100
C563        C  0.99534103  0.26334955  0.98981256     0.77500
O564        O  0.04074865  0.35482073  0.99160682    -0.56300
C565        C  0.99945743  0.32865702  0.89112896     0.77500
C566        C  0.93404011  0.33611868  0.99107406     0.79900
Cd567      Cd  0.99776306  0.32190589  0.96563318     1.37500
O568        O  0.99638166  0.26918531  0.95721068    -0.55100
O569        O  0.93921345  0.31755023  0.96701127    -0.53900
C570        C  0.06195118  0.33437463  0.99149204     0.79800
O571        O  0.95837063  0.35054892  0.00251080    -0.56300
O572        O  0.99862617  0.28473091  0.51207235    -0.54700
O573        O  0.99812578  0.35188354  0.90975333    -0.54700
O574        O  0.05343951  0.30973441  0.97929252    -0.53900
C575        C  0.21581922  0.34168463  0.51525013     0.89200
C576        C  0.21846602  0.30998246  0.99983829    -0.51000
C577        C  0.19595363  0.29108993  0.51251404     0.12100
C578        C  0.17198164  0.30513409  0.53910407     0.23100
C579        C  0.18080510  0.35112736  0.50698365    -0.51800
C580        C  0.15790240  0.33209712  0.51951074     0.12200
C581        C  0.21684574  0.33776906  0.55536528    -0.51300
C582        C  0.19389566  0.31866232  0.56792857     0.12800
H583        H  0.23712918  0.30362125  0.98096739     0.17300
H584        H  0.15314699  0.28967076  0.54926849     0.03000
H585        H  0.17381468  0.37040753  0.99157553     0.17600
H586        H  0.23382047  0.34946021  0.57239661     0.17400
C587        C  0.28184312  0.40301705  0.97777890     0.89200
C588        C  0.31701518  0.39420773  0.98626291    -0.51000
C589        C  0.33958420  0.41354134  0.97366514     0.12100
C590        C  0.32503153  0.44013633  0.95375732     0.23100
C591        C  0.27797510  0.43442132  0.99268939    -0.51800
C592        C  0.30069971  0.45393955  0.98018211     0.12200
C593        C  0.28088547  0.40665993  0.93762725    -0.51300
C594        C  0.30351073  0.42602568  0.92494270     0.12800
H595        H  0.32431185  0.37507157  0.50136024     0.17300
H596        H  0.34359975  0.45583598  0.94353843     0.03000
H597        H  0.25986902  0.44081075  0.51194863     0.17600
H598        H  0.26428429  0.39449537  0.92063966     0.17400
O599        O  0.50230312  0.05329173  0.90635050    -0.55100
C600        C  0.49604997  0.01287577  0.99049302     0.77500
O601        O  0.54050936  0.10407918  0.99107816    -0.56300
C602        C  0.50026214  0.07762253  0.89040657     0.77500
C603        C  0.43411654  0.08450838  0.98965723     0.79900
Cd604      Cd  0.49817298  0.07083865  0.96483809     1.37500
O605        O  0.49708500  0.01807628  0.95772906    -0.55100
O606        O  0.43961797  0.06581676  0.96579254    -0.53900
C607        C  0.56207337  0.08394546  0.99071329     0.79800
O608        O  0.45821894  0.09928621  0.00104839    -0.56300
O609        O  0.49505553  0.03465770  0.51187088    -0.54700
O610        O  0.49773235  0.10072178  0.90910326    -0.54700
O611        O  0.55403839  0.05928132  0.97819262    -0.53900
C612        C  0.78162456  0.15410796  0.97781514     0.89200
C613        C  0.81677502  0.14473311  0.98538381    -0.51000
C614        C  0.83941680  0.16382117  0.97244881     0.12100
C615        C  0.82496142  0.19081454  0.95322042     0.23100
C616        C  0.77856509  0.18543149  0.99313361    -0.51800
C617        C  0.80132240  0.20475452  0.98029349     0.12200
C618        C  0.77995808  0.15807516  0.93772313    -0.51300
C619        C  0.80267605  0.17722753  0.92475238     0.12800
H620        H  0.82304495  0.12506967  0.50089901     0.17300
H621        H  0.84359576  0.20633085  0.94274567     0.03000
H622        H  0.75979276  0.19167736  0.51278557     0.17600
H623        H  0.76286712  0.14624136  0.92097298     0.17400
C624        C  0.71453343  0.09265116  0.51540522     0.89200
C625        C  0.71873859  0.06128529  0.00050446    -0.51000
C626        C  0.69554217  0.04177196  0.51295153     0.12100
C627        C  0.67106719  0.05566435  0.53911970     0.23100
C628        C  0.67944405  0.10154700  0.50661059    -0.51800
C629        C  0.65673555  0.08228428  0.51907587     0.12200
C630        C  0.71518926  0.08904123  0.55557833    -0.51300
C631        C  0.69243697  0.06970724  0.56807649     0.12800
H632        H  0.73757415  0.05503877  0.98177878     0.17300
H633        H  0.65239178  0.04001216  0.54921524     0.03000
H634        H  0.67353088  0.12127995  0.99158132     0.17600
H635        H  0.73179983  0.10107448  0.57268656     0.17400
O636        O  0.99541349  0.19150304  0.58787136    -0.55100
C637        C  0.99534711  0.23313895  0.00214531     0.77500
O638        O  0.03851992  0.14322045  0.49782954    -0.56300
C639        C  0.99667890  0.16698642  0.60345435     0.77500
C640        C  0.93395917  0.16147071  0.50258697     0.79900
Cd641      Cd  0.99755452  0.17467560  0.52907851     1.37500
O642        O  0.99868997  0.22752548  0.53667829    -0.55100
O643        O  0.93999223  0.18317928  0.52224369    -0.53900
C644        C  0.06149508  0.16141756  0.50341320     0.79800
O645        O  0.95729502  0.14393718  0.49586356    -0.56300
O646        O  0.99571907  0.21171659  0.98074190    -0.54700
O647        O  0.99830968  0.14402582  0.58440944    -0.54700
O648        O  0.05500005  0.18386674  0.52167859    -0.53900
C649        C  0.28097524  0.09212337  0.51502078     0.89200
C650        C  0.31604045  0.10121092  0.50648351    -0.51000
C651        C  0.33880229  0.08202922  0.51900701     0.12100
C652        C  0.32452341  0.05526342  0.53883708     0.23100
C653        C  0.27733533  0.06073030  0.50005655    -0.51800
C654        C  0.30021186  0.04133713  0.51248515     0.12200
C655        C  0.28013235  0.08840177  0.55518354    -0.51300
C656        C  0.30294508  0.06913530  0.56773823     0.12800
H657        H  0.32294287  0.12011625  0.99173190     0.17300
H658        H  0.34323466  0.03966128  0.54897222     0.03000
H659        H  0.25891463  0.05389817  0.98199854     0.17600
H660        H  0.26338067  0.10032741  0.57224010     0.17400
C661        C  0.21460209  0.15284993  0.97811288     0.89200
C662        C  0.21802733  0.18426576  0.99309032    -0.51000
C663        C  0.19521985  0.20361945  0.98040317     0.12100
C664        C  0.17118391  0.18961547  0.95379735     0.23100
C665        C  0.17948354  0.14369914  0.98628381    -0.51800
C666        C  0.15679087  0.16283860  0.97353165     0.12200
C667        C  0.21580354  0.15654684  0.93797336    -0.51300
C668        C  0.19306348  0.17573990  0.92514092     0.12800
H669        H  0.23628342  0.19095441  0.51166277     0.17300
H670        H  0.15252286  0.20516575  0.94344201     0.03000
H671        H  0.17246443  0.12465742  0.50110531     0.17600
H672        H  0.23268492  0.14458108  0.92110651     0.17400
C673        C  0.23858792  0.13144703  0.99155759    -0.10600
C674        C  0.25691823  0.11354326  0.50179064    -0.12100
C675        C  0.09374606  0.15785017  0.48949465    -0.10600
C676        C  0.12248762  0.15873639  0.98014514    -0.12100
C677        C  0.87375114  0.15933138  0.97833252    -0.10600
C678        C  0.90178810  0.15799460  0.48848730    -0.12100
C679        C  0.75773392  0.13269660  0.99140749    -0.10600
C680        C  0.73855710  0.11418388  0.50229933    -0.12100
C681        C  0.59458549  0.08795862  0.00369179    -0.10600
C682        C  0.62244887  0.08618405  0.51218982    -0.12100
C683        C  0.40177344  0.08738940  0.00357224    -0.10600
C684        C  0.37307701  0.08618547  0.51227271    -0.12100
C685        C  0.30197392  0.48460005  0.99167699    -0.10600
C686        C  0.30135563  0.01060309  0.50127885    -0.12100
C687        C  0.19422307  0.26043230  0.50111696    -0.10600
C688        C  0.19394914  0.23438513  0.99154991    -0.12100
C689        C  0.25801987  0.38137064  0.99103102    -0.10600
C690        C  0.23996646  0.36304791  0.50207496    -0.12100
C691        C  0.09458712  0.33800038  0.00433007    -0.10600
C692        C  0.12365234  0.33642736  0.51280094    -0.12100
C693        C  0.69517955  0.48561187  0.99151512    -0.10600
C694        C  0.69432495  0.01106843  0.50165830    -0.12100
C695        C  0.80279299  0.23545845  0.99160746    -0.10600
C696        C  0.80264419  0.26102978  0.50198613    -0.12100
C697        C  0.90177682  0.33920961  0.00508940    -0.10600
C698        C  0.87434985  0.33665190  0.51271751    -0.12100
C699        C  0.75816263  0.36400411  0.50237392    -0.10600
C700        C  0.73854865  0.38222361  0.99153344    -0.12100
C701        C  0.62285193  0.41087197  0.98036421    -0.10600
C702        C  0.59515611  0.40897149  0.48965306    -0.12100
C703        C  0.40252613  0.40845759  0.48940823    -0.10600
C704        C  0.37388179  0.40979170  0.98063037    -0.12100
C705        C  0.19018313  0.31356235  0.60538223    -0.10600
C706        C  0.19036018  0.31316716  0.63726684    -0.12100
C707        C  0.30767429  0.43019996  0.85546981    -0.10600
C708        C  0.30753319  0.43052613  0.88737924    -0.12100
C709        C  0.25877766  0.37999079  0.75207104    -0.10600
C710        C  0.24006268  0.36144401  0.74137820    -0.12100
C711        C  0.09585378  0.33713287  0.73824209    -0.10600
C712        C  0.12399977  0.33489756  0.72953870    -0.12100
C713        C  0.69013578  0.43147865  0.85558823    -0.10600
C714        C  0.69000175  0.43160733  0.88749656    -0.12100
C715        C  0.80840755  0.31492250  0.63768333    -0.10600
C716        C  0.80833976  0.31499962  0.60578495    -0.12100
C717        C  0.87458471  0.33479324  0.73152981    -0.10600
C718        C  0.90290635  0.33620314  0.73999798    -0.12100
C719        C  0.75862521  0.36363803  0.74147006    -0.10600
C720        C  0.73962579  0.38202476  0.75202076    -0.12100
C721        C  0.37454504  0.40793375  0.76300211    -0.10600
C722        C  0.40271825  0.40618275  0.75423738    -0.12100
C723        C  0.59523642  0.40746927  0.75472909    -0.10600
C724        C  0.62347612  0.40928022  0.76326531    -0.12100
C725        C  0.30685722  0.06368944  0.63712848    -0.10600
C726        C  0.30683258  0.06413279  0.60522416    -0.12100
C727        C  0.30191089  0.00864892  0.74066335    -0.10600
C728        C  0.30288903  0.48307441  0.75071660    -0.12100
C729        C  0.18947975  0.18020230  0.85566689    -0.10600
C730        C  0.18936058  0.18038015  0.88757180    -0.12100
C731        C  0.19482730  0.25871888  0.74117750    -0.10600
C732        C  0.19457184  0.23320219  0.75102673    -0.12100
C733        C  0.25701401  0.11146610  0.74148904    -0.10600
C734        C  0.23823598  0.12996539  0.75219874    -0.12100
C735        C  0.12248976  0.15806719  0.76384976    -0.10600
C736        C  0.09425460  0.15627176  0.75533305    -0.12100
C737        C  0.68858134  0.06448451  0.63745640    -0.10600
C738        C  0.68849757  0.06475935  0.60555557    -0.12100
C739        C  0.69401701  0.01032396  0.74163396    -0.10600
C740        C  0.69487076  0.48484560  0.75116857    -0.12100
C741        C  0.80619187  0.18168548  0.85527286    -0.10600
C742        C  0.80624291  0.18186318  0.88717439    -0.12100
C743        C  0.80176044  0.26026950  0.74093889    -0.10600
C744        C  0.80160296  0.23474469  0.75070459    -0.12100
C745        C  0.87343908  0.15959802  0.76355458    -0.10600
C746        C  0.90178683  0.15791208  0.75539391    -0.12100
C747        C  0.75751509  0.13167214  0.75165492    -0.10600
C748        C  0.73859089  0.11322294  0.74110599    -0.12100
C749        C  0.59408599  0.08715930  0.73861104    -0.10600
C750        C  0.62242619  0.08564850  0.73033555    -0.12100
C751        C  0.40129652  0.08681362  0.73898010    -0.10600
C752        C  0.37314469  0.08460588  0.73020558    -0.12100
O753        O  0.50400933  0.55351657  0.33606591    -0.55100
C754        C  0.49631749  0.51220880  0.25296506     0.77500
O755        O  0.45855627  0.59933549  0.24194416    -0.56300
C756        C  0.50111422  0.57784451  0.35183536     0.77500
C757        C  0.56256114  0.58352555  0.25129885     0.79900
Cd758      Cd  0.49873135  0.57052729  0.27755029     1.37500
O759        O  0.49628089  0.51786156  0.28562657    -0.55100
O760        O  0.55502270  0.55944648  0.26567709    -0.53900
C761        C  0.43458437  0.58417457  0.25293127     0.79800
O762        O  0.54053986  0.60317352  0.24926571    -0.55500
O763        O  0.49692929  0.53370817  0.23163695    -0.54700
O764        O  0.49770250  0.60076879  0.33299190    -0.54700
O765        O  0.44026794  0.56502311  0.27621087    -0.53900
C766        C  0.78198887  0.65351307  0.26504785     0.89200
C767        C  0.77798720  0.68482100  0.24992805    -0.51000
C768        C  0.80048040  0.70451496  0.26248739     0.12100
C769        C  0.82479078  0.69098282  0.28910658     0.23100
C770        C  0.81727266  0.64485657  0.25685507    -0.51800
C771        C  0.83964586  0.66437615  0.26947407     0.12200
C772        C  0.78078396  0.65734499  0.30518617    -0.51300
C773        C  0.80319995  0.67692667  0.31786830     0.12800
H774        H  0.75927147  0.69078965  0.23093183     0.17300
H775        H  0.84317672  0.70685314  0.29933757     0.03000
H776        H  0.82396499  0.62523693  0.24204623     0.17600
H777        H  0.76410099  0.64524917  0.32214411     0.17400
C778        C  0.71549622  0.59182521  0.22763722     0.89200
C779        C  0.68036980  0.60093714  0.23593352    -0.51000
C780        C  0.65766559  0.58176304  0.22326456     0.12100
C781        C  0.67203761  0.55500237  0.20352883     0.23100
C782        C  0.71900715  0.56043043  0.24264107    -0.51800
C783        C  0.69615489  0.54106279  0.23009606     0.12200
C784        C  0.71655166  0.58810277  0.18748357    -0.51300
C785        C  0.69376199  0.56889954  0.17475750     0.12800
H786        H  0.67401600  0.62063206  0.25077120     0.17300
H787        H  0.65335618  0.53942848  0.19327478     0.03000
H788        H  0.73761536  0.55419044  0.26163622     0.17600
H789        H  0.73329493  0.60013447  0.17052613     0.17400
O790        O  0.99892962  0.69187564  0.15607305    -0.55100
C791        C  0.00014277  0.73269442  0.24041217     0.77500
O792        O  0.95776301  0.64473470  0.24780333    -0.56300
C793        C  0.99929520  0.66739970  0.14033766     0.77500
C794        C  0.06243007  0.66042801  0.24067836     0.79900
Cd795      Cd  0.99892814  0.67464957  0.21479270     1.37500
O796        O  0.00131564  0.72742135  0.20767709    -0.55100
O797        O  0.05620314  0.68328280  0.22306284    -0.53900
C798        C  0.93465501  0.66231702  0.24036307     0.79800
O799        O  0.03927989  0.64229037  0.24569215    -0.56300
O800        O  0.99855380  0.71095496  0.26132432    -0.54700
O801        O  0.99933925  0.64431083  0.15924824    -0.54700
O802        O  0.94116336  0.68371471  0.22037263    -0.53900
C803        C  0.21495087  0.65193689  0.26510001     0.89200
C804        C  0.17982168  0.64280077  0.25699334    -0.51000
C805        C  0.15718657  0.66213767  0.26941223     0.12100
C806        C  0.17162699  0.68910021  0.28871519     0.23100
C807        C  0.21852923  0.68317396  0.24963275    -0.51800
C808        C  0.19577659  0.70273503  0.26196613     0.12200
C809        C  0.21607794  0.65607872  0.30519701    -0.51300
C810        C  0.19336391  0.67548631  0.31765150     0.12800
H811        H  0.17340905  0.62295905  0.24246391     0.17300
H812        H  0.15299646  0.70481714  0.29876891     0.03000
H813        H  0.23721666  0.68920770  0.23063657     0.17600
H814        H  0.23284634  0.64422642  0.32230751     0.17400
C815        C  0.28186109  0.59060903  0.22790097     0.89200
C816        C  0.27834990  0.55906179  0.24241463    -0.51000
C817        C  0.30131867  0.53986539  0.22974020     0.12100
C818        C  0.32556356  0.55414171  0.20353900     0.23100
C819        C  0.31688799  0.59971957  0.23657095    -0.51800
C820        C  0.33973486  0.58075456  0.22377093     0.12200
C821        C  0.28102640  0.58730402  0.18770027    -0.51300
C822        C  0.30392117  0.56827975  0.17482770     0.12800
H823        H  0.25963642  0.55258877  0.26117270     0.17300
H824        H  0.34434848  0.53871935  0.19317703     0.03000
H825        H  0.32308095  0.61929452  0.25171526     0.17600
H826        H  0.26427089  0.59941110  0.17083024     0.17400
O827        O  0.49725728  0.97668386  0.20806296    -0.55100
C828        C  0.49873149  0.91671774  0.14161685     0.77500
O829        O  0.53895625  0.89210457  0.24617404    -0.56300
C830        C  0.49562814  0.98228906  0.24067120     0.77500
C831        C  0.43369562  0.90983451  0.24034938     0.79900
Cd832      Cd  0.49764389  0.92392377  0.21585208     1.37500
O833        O  0.49910057  0.94114001  0.15746412    -0.55100
O834        O  0.43923555  0.92933182  0.21745147    -0.53900
C835        C  0.56156982  0.91090306  0.24181751     0.79800
O836        O  0.45773075  0.89457961  0.25096846    -0.56300
O837        O  0.49817950  0.89353340  0.16037472    -0.54700
O838        O  0.49470074  0.96073521  0.26189605    -0.54700
O839        O  0.55464679  0.93400595  0.22497186    -0.53900
C840        C  0.78167932  0.84245532  0.22850879     0.89200
C841        C  0.77760393  0.81095294  0.24299853    -0.51000
C842        C  0.80028571  0.79147085  0.23036323     0.12100
C843        C  0.82481328  0.80538809  0.20427060     0.23100
C844        C  0.81687307  0.85107407  0.23729899    -0.51800
C845        C  0.83943061  0.83175122  0.22457828     0.12200
C846        C  0.78088293  0.83915482  0.18831549    -0.51300
C847        C  0.80345901  0.81979121  0.17553603     0.12800
H848        H  0.75874668  0.80471748  0.26170463     0.17300
H849        H  0.84332778  0.78968128  0.19394820     0.03000
H850        H  0.82336331  0.87052296  0.25252063     0.17600
H851        H  0.76430513  0.85141378  0.17139358     0.17400
C852        C  0.71442944  0.90354467  0.26562750     0.89200
C853        C  0.67934645  0.89415803  0.25757546    -0.51000
C854        C  0.65654410  0.91326199  0.27020764     0.12100
C855        C  0.67080351  0.94023736  0.28965468     0.23100
C856        C  0.71763782  0.93487117  0.25036123    -0.51800
C857        C  0.69472569  0.95417984  0.26289534     0.12200
C858        C  0.71564203  0.90750519  0.30573532    -0.51300
C859        C  0.69279021  0.92666537  0.31840914     0.12800
H860        H  0.67309212  0.87434979  0.24290380     0.17300
H861        H  0.65206544  0.95576563  0.29988987     0.03000
H862        H  0.73619710  0.94114655  0.23133077     0.17600
H863        H  0.73261626  0.89573949  0.32269690     0.17400
O864        O  0.99818500  0.76794640  0.28615810    -0.55100
C865        C  0.99873392  0.82858305  0.35334482     0.77500
O866        O  0.03906688  0.84975930  0.24348873    -0.56300
C867        C  0.00026376  0.76265137  0.25347158     0.77500
C868        C  0.93468345  0.83306637  0.25323801     0.79900
Cd869      Cd  0.99902768  0.82071906  0.27892166     1.37500
O870        O  0.99912560  0.80397934  0.33786994    -0.55100
O871        O  0.94237330  0.80936447  0.26843389    -0.53900
C872        C  0.06286171  0.83376120  0.25318715     0.79800
O873        O  0.95670260  0.85263598  0.25027922    -0.56300
O874        O  0.99836391  0.85151989  0.33416762    -0.54700
O875        O  0.00207052  0.78438008  0.23256176    -0.54700
O876        O  0.05721000  0.81405098  0.27579015    -0.53900
C877        C  0.28120911  0.90236970  0.26533821     0.89200
C878        C  0.27761446  0.93373490  0.25024358    -0.51000
C879        C  0.30043248  0.95316458  0.26273854     0.12100
C880        C  0.32458952  0.93931677  0.28930857     0.23100
C881        C  0.31631165  0.89330751  0.25704792    -0.51800
C882        C  0.33897130  0.91252789  0.26962936     0.12200
C883        C  0.28014196  0.90618230  0.30549030    -0.51300
C884        C  0.30287065  0.92549588  0.31813277     0.12800
H885        H  0.25896539  0.93991588  0.23126785     0.17300
H886        H  0.34325148  0.95494246  0.29949155     0.03000
H887        H  0.32269189  0.87361476  0.24221173     0.17600
H888        H  0.26334953  0.89424306  0.32248072     0.17400
C889        C  0.21511030  0.84060393  0.22750741     0.89200
C890        C  0.17997858  0.84949723  0.23589314    -0.51000
C891        C  0.15737832  0.83031452  0.22310533     0.12100
C892        C  0.17185632  0.80371212  0.20313887     0.23100
C893        C  0.21882674  0.80912841  0.24225186    -0.51800
C894        C  0.19608700  0.78971532  0.22953412     0.12200
C895        C  0.21617959  0.83711125  0.18732251    -0.51300
C896        C  0.19351247  0.81783858  0.17447717     0.12800
H897        H  0.17353098  0.86907900  0.25090539     0.17300
H898        H  0.15324738  0.78811829  0.19277558     0.03000
H899        H  0.23750061  0.80286265  0.26115763     0.17600
H900        H  0.23289726  0.84925992  0.17045532     0.17400
O901        O  0.49911469  0.94154026  0.08779942    -0.55100
C902        C  0.49532076  0.98293382  0.50408154     0.77500
O903        O  0.53904114  0.89389101  0.99790633    -0.56300
C904        C  0.49867363  0.91693595  0.10326981     0.77500
C905        C  0.43376694  0.91129944  0.00370832     0.79900
Cd906      Cd  0.49764857  0.92486575  0.02914250     1.37500
O907        O  0.49609347  0.97770710  0.03636890    -0.55100
O908        O  0.43922296  0.93087707  0.02654692    -0.53900
C909        C  0.56183536  0.91224386  0.00369378     0.79800
O910        O  0.45777175  0.89570682  0.99370648    -0.56300
O911        O  0.49559904  0.96120800  0.48312430    -0.54700
O912        O  0.49792929  0.89395395  0.08416212    -0.54700
O913        O  0.55503970  0.93461298  0.02198174    -0.53900
C914        C  0.78149663  0.84269241  0.01568889     0.89200
C915        C  0.81655073  0.85204966  0.00747476    -0.51000
C916        C  0.83939559  0.83303551  0.02019622     0.12100
C917        C  0.82520923  0.80614720  0.03985642     0.23100
C918        C  0.77826416  0.81127947  0.00065853    -0.51800
C919        C  0.80123949  0.79204877  0.01325863     0.12200
C920        C  0.78038753  0.83893746  0.05582676    -0.51300
C921        C  0.80329045  0.81985708  0.06856620     0.12800
H922        H  0.82209759  0.87203793  0.49307915     0.17300
H923        H  0.84399112  0.79069005  0.05015430     0.03000
H924        H  0.75935936  0.80493758  0.48150494     0.17600
H925        H  0.76346288  0.85079272  0.07275611     0.17400
C926        C  0.71407760  0.90391460  0.47833262     0.89200
C927        C  0.71781342  0.93528229  0.49333817    -0.51000
C928        C  0.69519010  0.95480880  0.48066884     0.12100
C929        C  0.67100334  0.94102312  0.45407002     0.23100
C930        C  0.67888331  0.89503498  0.48651706    -0.51800
C931        C  0.65636402  0.91435759  0.47380414     0.12200
C932        C  0.71530872  0.90762473  0.43819639    -0.51300
C933        C  0.69273968  0.92699717  0.42539146     0.12800
H934        H  0.73701790  0.94149292  0.01231559     0.17300
H935        H  0.65248832  0.95672945  0.44374604     0.03000
H936        H  0.67283589  0.87546734  0.00182469     0.17600
H937        H  0.73207321  0.89553933  0.42131491     0.17400
O938        O  0.99888145  0.80457157  0.40779317    -0.55100
C939        C  0.99495229  0.76365039  0.49082567     0.77500
O940        O  0.04014303  0.85466281  0.49302540    -0.56300
C941        C  0.99857477  0.82890898  0.39175342     0.77500
C942        C  0.93360074  0.83664871  0.49175906     0.79900
Cd943      Cd  0.99723748  0.82214971  0.46630911     1.37500
O944        O  0.99548507  0.76948837  0.45821913    -0.55100
O945        O  0.93873566  0.81777252  0.46803649    -0.53900
C946        C  0.06164809  0.83451711  0.49151799     0.79800
O947        O  0.95795241  0.85121468  0.50289939    -0.56300
O948        O  0.99649963  0.78463872  0.01169728    -0.54700
O949        O  0.99799120  0.85215334  0.41039720    -0.54700
O950        O  0.05335887  0.81023742  0.47814026    -0.53900
C951        C  0.21507402  0.84101152  0.01466217     0.89200
C952        C  0.21826891  0.81020308  0.49979546    -0.51000
C953        C  0.19552184  0.79029201  0.01215384     0.12100
C954        C  0.17146059  0.80432036  0.03870618     0.23100
C955        C  0.18000681  0.85024874  0.00635450    -0.51800
C956        C  0.15721371  0.83116025  0.01898224     0.12200
C957        C  0.21612276  0.83724355  0.05479109    -0.51300
C958        C  0.19329055  0.81808573  0.06747845     0.12800
H959        H  0.23699415  0.80395107  0.48094442     0.17300
H960        H  0.15271428  0.78881064  0.04895670     0.03000
H961        H  0.17361204  0.87066270  0.49188448     0.17600
H962        H  0.23298650  0.84912962  0.07175858     0.17400
C963        C  0.28143111  0.90335801  0.47816348     0.89200
C964        C  0.31663166  0.89466009  0.48661180    -0.51000
C965        C  0.33912293  0.91399815  0.47387941     0.12100
C966        C  0.32446711  0.94049801  0.45386437     0.23100
C967        C  0.27749934  0.93480357  0.49293395    -0.51800
C968        C  0.30013677  0.95433667  0.48026667     0.12200
C969        C  0.28038424  0.90686842  0.43799832    -0.51300
C970        C  0.30291979  0.92624807  0.42516459     0.12800
H971        H  0.32333298  0.87457079  0.00088132     0.17300
H972        H  0.34297159  0.95620580  0.44353044     0.03000
H973        H  0.25903442  0.94031639  0.01192041     0.17600
H974        H  0.26375794  0.89463374  0.42111154     0.17400
O975        O  0.50356359  0.55354248  0.40605455    -0.55100
C976        C  0.49640858  0.51290735  0.49015133     0.77500
O977        O  0.54085309  0.60361879  0.49184178    -0.56300
C978        C  0.50102439  0.57787041  0.39019807     0.77500
C979        C  0.43464893  0.58452598  0.48938129     0.79900
Cd980      Cd  0.49868725  0.57082320  0.46455171     1.37500
O981        O  0.49680761  0.51810776  0.45736716    -0.55100
O982        O  0.44026950  0.56497839  0.46655128    -0.53900
C983        C  0.56257517  0.58364860  0.49070538     0.79800
O984        O  0.45860857  0.60001013  0.49974997    -0.56300
O985        O  0.49554737  0.53472697  0.01111311    -0.54700
O986        O  0.49783523  0.60086021  0.40895927    -0.54700
O987        O  0.55471735  0.55927113  0.47728023    -0.53900
C988        C  0.78190477  0.65454413  0.47786189     0.89200
C989        C  0.81708238  0.64531037  0.48557477    -0.51000
C990        C  0.83968475  0.66448552  0.47272388     0.12100
C991        C  0.82515714  0.69141045  0.45342141     0.23100
C992        C  0.77864956  0.68585775  0.49316005    -0.51800
C993        C  0.80136712  0.70526220  0.48040955     0.12200
C994        C  0.78035808  0.65849408  0.43776587    -0.51300
C995        C  0.80303112  0.67772070  0.42486763     0.12800
H996        H  0.82362939  0.62538733  0.00072066     0.17300
H997        H  0.84375179  0.70699507  0.44301028     0.03000
H998        H  0.76023215  0.69193502  0.01250930     0.17600
H999        H  0.76339060  0.64657539  0.42095403     0.17400
C1000       C  0.71533673  0.59276411  0.01510737     0.89200
C1001       C  0.71938169  0.56145211  0.50036037    -0.51000
C1002       C  0.69639218  0.54186954  0.01258754     0.12100
C1003       C  0.67191111  0.55573148  0.03879742     0.23100
C1004       C  0.68025082  0.60165398  0.00634975    -0.51800
C1005       C  0.65755541  0.58238055  0.01879307     0.12200
C1006       C  0.71602672  0.58911295  0.05527323    -0.51300
C1007       C  0.69330313  0.56975311  0.06777417     0.12800
H1008       H  0.73821126  0.55529765  0.48158440     0.17300
H1009       H  0.65324823  0.54006216  0.04887950     0.03000
H1010       H  0.67377036  0.62120633  0.49149442     0.17600
H1011       H  0.73265309  0.60113145  0.07237800     0.17400
O1012       O  0.00019537  0.69181680  0.08614792    -0.55100
C1013       C  0.99508761  0.73340269  0.50304006     0.77500
O1014       O  0.04006535  0.64084217  0.00103108    -0.56300
C1015       C  0.99950802  0.66735737  0.10195464     0.77500
C1016       C  0.93461791  0.66034177  0.00221286     0.79900
Cd1017     Cd  0.99828109  0.67440627  0.02761292     1.37500
O1018       O  0.99709879  0.72726357  0.03567393    -0.55100
O1019       O  0.93953021  0.67670998  0.02853024    -0.53900
C1020       C  0.06209634  0.66052125  0.00230163     0.79800
O1021       O  0.95922240  0.64778824  0.98856827    -0.56300
O1022       O  0.99525860  0.71210963  0.48145840    -0.54700
O1023       O  0.99878536  0.64420907  0.08313148    -0.54700
O1024       O  0.05463201  0.68497257  0.01583124    -0.53900
C1025       C  0.28196554  0.59170700  0.01482779     0.89200
C1026       C  0.31703817  0.60063709  0.00612647    -0.51000
C1027       C  0.33976322  0.58148498  0.01878526     0.12100
C1028       C  0.32543649  0.55488595  0.03890494     0.23100
C1029       C  0.27819230  0.56023286  0.00017172    -0.51800
C1030       C  0.30102795  0.54085805  0.01271510     0.12200
C1031       C  0.28118715  0.58826136  0.05503190    -0.51300
C1032       C  0.30396157  0.56902070  0.06773677     0.12800
H1033       H  0.32357293  0.62068576  0.49139369     0.17300
H1034       H  0.34411985  0.53930177  0.04913715     0.03000
H1035       H  0.25956083  0.55449022  0.48121346     0.17600
H1036       H  0.26450908  0.60035485  0.07200312     0.17400
C1037       C  0.21494752  0.65320230  0.47747069     0.89200
C1038       C  0.21817110  0.68462382  0.49246869    -0.51000
C1039       C  0.19518654  0.70384403  0.47987420     0.12100
C1040       C  0.17117447  0.68970939  0.45333719     0.23100
C1041       C  0.17992665  0.64381948  0.48574158    -0.51800
C1042       C  0.15704789  0.66281596  0.47308497     0.12200
C1043       C  0.21601026  0.65694175  0.43732856    -0.51300
C1044       C  0.19308421  0.67600264  0.42458957     0.12800
H1045       H  0.23679342  0.69044710  0.01109012     0.17300
H1046       H  0.15236421  0.70515063  0.44306370     0.03000
H1047       H  0.17364991  0.62357482  0.00077596     0.17600
H1048       H  0.23294731  0.64510722  0.42039567     0.17400
C1049       C  0.23911588  0.63193891  0.49085415    -0.10600
C1050       C  0.25796231  0.61309555  0.00141205    -0.12100
C1051       C  0.09445276  0.65631785  0.98900127    -0.10600
C1052       C  0.12279475  0.65846161  0.47978078    -0.12100
C1053       C  0.87404162  0.66007937  0.47864842    -0.10600
C1054       C  0.90235463  0.65774344  0.98810465    -0.12100
C1055       C  0.75804784  0.63304058  0.49133763    -0.10600
C1056       C  0.73929785  0.61434603  0.00201477    -0.12100
C1057       C  0.59506406  0.58755205  0.50380826    -0.10600
C1058       C  0.62327539  0.58633302  0.01188793    -0.12100
C1059       C  0.40231896  0.58765258  0.50325117    -0.10600
C1060       C  0.37403307  0.58557745  0.01196623    -0.12100
C1061       C  0.30128718  0.98505999  0.49153067    -0.10600
C1062       C  0.30213524  0.51010771  0.00155978    -0.12100
C1063       C  0.19397055  0.75958794  0.00079258    -0.10600
C1064       C  0.19378651  0.73460315  0.49101450    -0.12100
C1065       C  0.25770973  0.88167611  0.49153621    -0.10600
C1066       C  0.23908335  0.86249516  0.00145364    -0.12100
C1067       C  0.09433503  0.83806982  0.50422944    -0.10600
C1068       C  0.12291866  0.83548406  0.01247530    -0.12100
C1069       C  0.69416018  0.98553487  0.49189451    -0.10600
C1070       C  0.69526060  0.51115175  0.00128695    -0.12100
C1071       C  0.80272875  0.73594766  0.49180785    -0.10600
C1072       C  0.80278782  0.76133690  0.00196852    -0.12100
C1073       C  0.90134080  0.83993213  0.50571177    -0.10600
C1074       C  0.87369337  0.83740994  0.01376786    -0.12100
C1075       C  0.75735182  0.86399291  0.00234621    -0.10600
C1076       C  0.73785560  0.88234449  0.49176688    -0.12100
C1077       C  0.62204910  0.91053344  0.48059749    -0.10600
C1078       C  0.59421994  0.90889795  0.99000961    -0.12100
C1079       C  0.40157541  0.90821393  0.98944509    -0.10600
C1080       C  0.37341953  0.91030119  0.48084624    -0.12100
C1081       C  0.18950651  0.81332533  0.10501207    -0.10600
C1082       C  0.18962285  0.81327707  0.13691673    -0.12100
C1083       C  0.30668033  0.93044865  0.35565223    -0.10600
C1084       C  0.30673380  0.93073108  0.38756700    -0.12100
C1085       C  0.25740352  0.88079172  0.25194605    -0.10600
C1086       C  0.23883958  0.86217103  0.24108545    -0.12100
C1087       C  0.09503796  0.83651682  0.23887486    -0.10600
C1088       C  0.12311066  0.83436400  0.22983988    -0.12100
C1089       C  0.68904854  0.93156514  0.35592580    -0.10600
C1090       C  0.68903023  0.93168420  0.38783168    -0.12100
C1091       C  0.80725571  0.81515663  0.13799126    -0.10600
C1092       C  0.80717484  0.81517604  0.10609318    -0.12100
C1093       C  0.87379461  0.83531256  0.23156163    -0.10600
C1094       C  0.90210084  0.83668417  0.24011028    -0.12100
C1095       C  0.75774018  0.86394380  0.24186032    -0.10600
C1096       C  0.73860102  0.88223264  0.25236669    -0.12100
C1097       C  0.37322133  0.90844953  0.26287146    -0.10600
C1098       C  0.40137568  0.90656829  0.25407874    -0.12100
C1099       C  0.59395739  0.90719868  0.25531614    -0.10600
C1100       C  0.62222945  0.90894923  0.26379226    -0.12100
C1101       C  0.30792733  0.56400458  0.13720854    -0.10600
C1102       C  0.30789853  0.56428066  0.10528803    -0.12100
C1103       C  0.30272090  0.50910142  0.24086436    -0.10600
C1104       C  0.30180170  0.98381951  0.25126106    -0.12100
C1105       C  0.18941935  0.68050868  0.35512591    -0.10600
C1106       C  0.18927858  0.68068051  0.38703377    -0.12100
C1107       C  0.19481886  0.75895475  0.24068590    -0.10600
C1108       C  0.19469404  0.73341370  0.25047410    -0.12100
C1109       C  0.25776557  0.61188503  0.24138156    -0.10600
C1110       C  0.23885080  0.63031973  0.25198726    -0.12100
C1111       C  0.12288212  0.65798282  0.26297779    -0.10600
C1112       C  0.09464868  0.65635543  0.25439152    -0.12100
C1113       C  0.68965481  0.56445862  0.13718690    -0.10600
C1114       C  0.68946466  0.56475042  0.10527437    -0.12100
C1115       C  0.69466168  0.51042361  0.24165099    -0.10600
C1116       C  0.69331377  0.98486260  0.25151069    -0.12100
C1117       C  0.80678365  0.68199127  0.35537775    -0.10600
C1118       C  0.80673548  0.68227962  0.38728378    -0.12100
C1119       C  0.80130349  0.76072231  0.24141332    -0.10600
C1120       C  0.80136855  0.73518947  0.25113093    -0.12100
C1121       C  0.87402491  0.66078510  0.26278543    -0.10600
C1122       C  0.90225264  0.65917819  0.25407213    -0.12100
C1123       C  0.75831891  0.63176620  0.25168775    -0.10600
C1124       C  0.73948551  0.61327615  0.24101319    -0.12100
C1125       C  0.59502667  0.58743295  0.23812371    -0.10600
C1126       C  0.62333998  0.58585606  0.22977340    -0.12100
C1127       C  0.40217994  0.58714739  0.23921900    -0.10600
C1128       C  0.37399673  0.58504342  0.23051382    -0.12100
O1129       O  0.50275328  0.55305513  0.83601490    -0.55100
C1130       C  0.49698118  0.51184294  0.75320696     0.77500
O1131       O  0.45904593  0.59750820  0.73959720    -0.56300
C1132       C  0.50102776  0.57750150  0.85174633     0.77500
C1133       C  0.56283735  0.58354622  0.75147284     0.79900
Cd1134     Cd  0.49890807  0.57029647  0.77740326     1.37500
O1135       O  0.49795194  0.51755234  0.78583897    -0.55100
O1136       O  0.55481166  0.55885507  0.76392335    -0.53900
C1137       C  0.43473799  0.58394404  0.75250189     0.79800
O1138       O  0.54124558  0.60365845  0.75116455    -0.55500
O1139       O  0.49633566  0.53330662  0.73184216    -0.54700
O1140       O  0.49890222  0.60052947  0.83284941    -0.54700
O1141       O  0.44012093  0.56657677  0.77778294    -0.53900
C1142       C  0.78246179  0.65330720  0.76545239     0.89200
C1143       C  0.77829385  0.68460928  0.75038221    -0.51000
C1144       C  0.80074586  0.70436454  0.76287979     0.12100
C1145       C  0.82518215  0.69089339  0.78941554     0.23100
C1146       C  0.81774797  0.64477101  0.75712969    -0.51800
C1147       C  0.84008068  0.66435019  0.76969659     0.12200
C1148       C  0.78135421  0.65709307  0.80559654    -0.51300
C1149       C  0.80372519  0.67673625  0.81823555     0.12800
H1150       H  0.75951749  0.69052424  0.73143153     0.17300
H1151       H  0.84353581  0.70681426  0.79959985     0.03000
H1152       H  0.82447141  0.62518994  0.74226451     0.17600
H1153       H  0.76476093  0.64492870  0.82258922     0.17400
C1154       C  0.71589642  0.59177310  0.72792879     0.89200
C1155       C  0.68081393  0.60092817  0.73637900    -0.51000
C1156       C  0.65802254  0.58188048  0.72362153     0.12100
C1157       C  0.67228506  0.55518683  0.70364626     0.23100
C1158       C  0.71935371  0.56029573  0.74267826    -0.51800
C1159       C  0.69642744  0.54105241  0.73003098     0.12200
C1160       C  0.71687114  0.58825987  0.68774997    -0.51300
C1161       C  0.69401136  0.56916829  0.67494111     0.12800
H1162       H  0.67455268  0.62056134  0.75137833     0.17300
H1163       H  0.65354714  0.53970487  0.69331355     0.03000
H1164       H  0.73800139  0.55390250  0.76155574     0.17600
H1165       H  0.73365840  0.60029713  0.67084887     0.17400
O1166       O  0.00115082  0.69179009  0.65505521    -0.55100
C1167       C  0.99862313  0.73274197  0.73867159     0.77500
O1168       O  0.95879410  0.64654941  0.75040803    -0.56300
C1169       C  0.00023375  0.66735220  0.63924387     0.77500
C1170       C  0.06226964  0.66015346  0.73994496     0.79900
Cd1171     Cd  0.99887721  0.67444911  0.71370514     1.37500
O1172       O  0.00015619  0.72735323  0.70597008    -0.55100
O1173       O  0.05492725  0.68486422  0.72706692    -0.53900
C1174       C  0.93482761  0.66179431  0.73961198     0.79800
O1175       O  0.04025930  0.64043330  0.74030305    -0.56300
O1176       O  0.99712847  0.71106434  0.75967294    -0.54700
O1177       O  0.99894273  0.64425048  0.65808165    -0.54700
O1178       O  0.94038519  0.68062416  0.71592497    -0.53900
C1179       C  0.21478047  0.65124554  0.76519998     0.89200
C1180       C  0.17974124  0.64206656  0.75672232    -0.51000
C1181       C  0.15696353  0.66134061  0.76896875     0.12100
C1182       C  0.17118649  0.68828866  0.78850991     0.23100
C1183       C  0.21841387  0.68252765  0.74985845    -0.51800
C1184       C  0.19551365  0.70202983  0.76201805     0.12200
C1185       C  0.21557112  0.65530266  0.80531426    -0.51300
C1186       C  0.19273059  0.67465304  0.81761990     0.12800
H1187       H  0.17349368  0.62225472  0.74205015     0.17300
H1188       H  0.15244082  0.70395202  0.79843080     0.03000
H1189       H  0.23722805  0.68862498  0.73103959     0.17600
H1190       H  0.23226271  0.64347545  0.82253870     0.17400
C1191       C  0.28189200  0.59005666  0.72805948     0.89200
C1192       C  0.27845248  0.55849339  0.74252888    -0.51000
C1193       C  0.30136072  0.53932162  0.72968164     0.12100
C1194       C  0.32547656  0.55362544  0.70336831     0.23100
C1195       C  0.31697472  0.59915177  0.73654506    -0.51800
C1196       C  0.33976460  0.58019889  0.72357212     0.12200
C1197       C  0.28085854  0.58680542  0.68786029    -0.51300
C1198       C  0.30369480  0.56780968  0.67481658     0.12800
H1199       H  0.25983857  0.55199325  0.76139094     0.17300
H1200       H  0.34420459  0.53821435  0.69286342     0.03000
H1201       H  0.32324326  0.61870328  0.75169392     0.17600
H1202       H  0.26404214  0.59895918  0.67110783     0.17400
O1203       O  0.49505317  0.97606414  0.70831754    -0.55100
C1204       C  0.49896324  0.91640116  0.64171555     0.77500
O1205       O  0.53907383  0.89243261  0.74686041    -0.56300
C1206       C  0.49522925  0.98163770  0.74098913     0.77500
C1207       C  0.43378335  0.90933616  0.74095527     0.79900
Cd1208     Cd  0.49752104  0.92346926  0.71596416     1.37500
O1209       O  0.49993847  0.94076761  0.65764206    -0.55100
O1210       O  0.43948383  0.93016707  0.71986611    -0.53900
C1211       C  0.56159758  0.91120463  0.74185543     0.79800
O1212       O  0.45754945  0.89288341  0.74956953    -0.56300
O1213       O  0.49755156  0.89320485  0.66038981    -0.54700
O1214       O  0.49614002  0.96009279  0.76224151    -0.54700
O1215       O  0.55453883  0.93393601  0.72436340    -0.53900
C1216       C  0.78129612  0.84214996  0.72859722     0.89200
C1217       C  0.77746423  0.81067204  0.74322530    -0.51000
C1218       C  0.80016152  0.79124988  0.73049586     0.12100
C1219       C  0.82446351  0.80520131  0.70417341     0.23100
C1220       C  0.81649920  0.85093594  0.73708936    -0.51800
C1221       C  0.83907202  0.83168791  0.72424959     0.12200
C1222       C  0.78026724  0.83874878  0.68841824    -0.51300
C1223       C  0.80287046  0.81945011  0.67554610     0.12800
H1224       H  0.75874768  0.80440713  0.76208206     0.17300
H1225       H  0.84299634  0.78954886  0.69377034     0.03000
H1226       H  0.82299105  0.87046796  0.75215934     0.17600
H1227       H  0.76355816  0.85093052  0.67156883     0.17400
C1228       C  0.71437856  0.90343541  0.76593214     0.89200
C1229       C  0.67921850  0.89435256  0.75779883    -0.51000
C1230       C  0.65659621  0.91364552  0.77039323     0.12100
C1231       C  0.67108760  0.94047854  0.78989876     0.23100
C1232       C  0.71793196  0.93474023  0.75069572    -0.51800
C1233       C  0.69518581  0.95422354  0.76319045     0.12200
C1234       C  0.71555913  0.90735953  0.80604753    -0.51300
C1235       C  0.69287944  0.92670498  0.81868824     0.12800
H1236       H  0.67278399  0.87460809  0.74309550     0.17300
H1237       H  0.65248579  0.95615684  0.80009981     0.03000
H1238       H  0.73654949  0.94086003  0.73165915     0.17600
H1239       H  0.73237714  0.89543852  0.82303442     0.17400
O1240       O  0.99714572  0.76787981  0.78449050    -0.55100
C1241       C  0.99901851  0.82811507  0.85243285     0.77500
O1242       O  0.03984074  0.85140809  0.74628651    -0.56300
C1243       C  0.99864555  0.76270694  0.75174473     0.77500
C1244       C  0.93433289  0.83351992  0.75248893     0.79900
Cd1245     Cd  0.99857840  0.82059903  0.77791007     1.37500
O1246       O  0.99933490  0.80358197  0.83680387    -0.55100
O1247       O  0.94099298  0.81143255  0.77130120    -0.53900
C1248       C  0.06268848  0.83323902  0.75267554     0.79800
O1249       O  0.95735825  0.85145678  0.74594544    -0.56300
O1250       O  0.99859701  0.85112588  0.83338784    -0.54700
O1251       O  0.00015466  0.78452380  0.73092707    -0.54700
O1252       O  0.05596880  0.81121056  0.77155916    -0.53900
C1253       C  0.28134262  0.90170495  0.76509723     0.89200
C1254       C  0.27786569  0.93296026  0.74963250    -0.51000
C1255       C  0.30057922  0.95249237  0.76213252     0.12100
C1256       C  0.32454723  0.93882859  0.78904824     0.23100
C1257       C  0.31649820  0.89257298  0.75721943    -0.51800
C1258       C  0.33906441  0.91187562  0.76980401     0.12200
C1259       C  0.27998001  0.90582368  0.80520199    -0.51300
C1260       C  0.30262645  0.92522584  0.81783289     0.12800
H1261       H  0.25932799  0.93900849  0.73046866     0.17300
H1262       H  0.34314035  0.95452149  0.79922961     0.03000
H1263       H  0.32298636  0.87275907  0.74267075     0.17600
H1264       H  0.26309880  0.89397717  0.82218172     0.17400
C1265       C  0.21520373  0.83986066  0.72752603     0.89200
C1266       C  0.18015885  0.84889434  0.73611428    -0.51000
C1267       C  0.15740010  0.82984401  0.72338461     0.12100
C1268       C  0.17164602  0.80320309  0.70328085     0.23100
C1269       C  0.21881888  0.80834109  0.74217329    -0.51800
C1270       C  0.19591692  0.78904120  0.72953441     0.12200
C1271       C  0.21607716  0.83644032  0.68733500    -0.51300
C1272       C  0.19325211  0.81730417  0.67454136     0.12800
H1273       H  0.17388036  0.86850258  0.75116091     0.17300
H1274       H  0.15290305  0.78771997  0.69296366     0.03000
H1275       H  0.23754065  0.80196781  0.76097233     0.17600
H1276       H  0.23276305  0.84857608  0.67041676     0.17400
O1277       O  0.50044913  0.94131408  0.58798374    -0.55100
C1278       C  0.49609595  0.98294906  0.00361397     0.77500
O1279       O  0.53909550  0.89331450  0.49896379    -0.56300
C1280       C  0.49908464  0.91670012  0.60338003     0.77500
C1281       C  0.43373457  0.91125966  0.50417880     0.79900
Cd1282     Cd  0.49763594  0.92479498  0.52934261     1.37500
O1283       O  0.49579308  0.97764799  0.53682643    -0.55100
O1284       O  0.43904722  0.92971290  0.52836477    -0.53900
C1285       C  0.56160318  0.91221686  0.50339022     0.79800
O1286       O  0.45792388  0.89662622  0.49274603    -0.56300
O1287       O  0.49660410  0.96119038  0.98270148    -0.54700
O1288       O  0.49746215  0.89378604  0.58421808    -0.54700
O1289       O  0.55462549  0.93515983  0.52053784    -0.53900
C1290       C  0.78091588  0.84266786  0.51577081     0.89200
C1291       C  0.81593858  0.85219423  0.50773237    -0.51000
C1292       C  0.83883104  0.83322670  0.52042712     0.12100
C1293       C  0.82472461  0.80620037  0.53987752     0.23100
C1294       C  0.77786589  0.81130851  0.50055302    -0.51800
C1295       C  0.80089238  0.79211870  0.51312424     0.12200
C1296       C  0.77970237  0.83875480  0.55588461    -0.51300
C1297       C  0.80266140  0.81971055  0.56858910     0.12800
H1298       H  0.82275939  0.87179977  0.99266985     0.17300
H1299       H  0.84355291  0.79077747  0.55014989     0.03000
H1300       H  0.75968337  0.80490613  0.98169650     0.17600
H1301       H  0.76268691  0.85049175  0.57282428     0.17400
C1302       C  0.71447460  0.90394708  0.97849839     0.89200
C1303       C  0.71827335  0.93533582  0.99344015    -0.51000
C1304       C  0.69558234  0.95484783  0.98086840     0.12100
C1305       C  0.67128152  0.94103693  0.95441866     0.23100
C1306       C  0.67930389  0.89507852  0.98688698    -0.51800
C1307       C  0.65672125  0.91439740  0.97426851     0.12200
C1308       C  0.71551411  0.90762644  0.93835383    -0.51300
C1309       C  0.69289222  0.92699018  0.92564687     0.12800
H1310       H  0.73647030  0.94141674  0.51232523     0.17300
H1311       H  0.65272520  0.95673636  0.94416704     0.03000
H1312       H  0.67234926  0.87541723  0.50141086     0.17600
H1313       H  0.73221826  0.89554658  0.92139693     0.17400
O1314       O  0.99923379  0.80392309  0.90679971    -0.55100
C1315       C  0.99615951  0.76306941  0.99045323     0.77500
O1316       O  0.04010882  0.85349188  0.99392564    -0.56300
C1317       C  0.99893254  0.82830059  0.89085239     0.77500
C1318       C  0.93415544  0.83567714  0.99120326     0.79900
Cd1319     Cd  0.99782826  0.82139594  0.96546517     1.37500
O1320       O  0.99622505  0.76866034  0.95777459    -0.55100
O1321       O  0.93958379  0.81531873  0.96938635    -0.53900
C1322       C  0.06207680  0.83387787  0.99101496     0.79800
O1323       O  0.95817870  0.85160179  0.00035581    -0.56300
O1324       O  0.99498999  0.78506960  0.51228965    -0.54700
O1325       O  0.99836368  0.85148011  0.90959982    -0.54700
O1326       O  0.05435708  0.81014749  0.97593378    -0.53900
C1327       C  0.21483206  0.84155946  0.51499288     0.89200
C1328       C  0.21846867  0.80959763  0.99961839    -0.51000
C1329       C  0.19527415  0.79085803  0.51212868     0.12100
C1330       C  0.17110390  0.80479133  0.53862791     0.23100
C1331       C  0.17980120  0.85084841  0.50658107    -0.51800
C1332       C  0.15694603  0.83172111  0.51899329     0.12200
C1333       C  0.21572199  0.83762379  0.55511473    -0.51300
C1334       C  0.19282941  0.81841222  0.56758237     0.12800
H1335       H  0.23709369  0.80329305  0.98067708     0.17300
H1336       H  0.15231527  0.78924306  0.54870267     0.03000
H1337       H  0.17374867  0.86999018  0.99155244     0.17600
H1338       H  0.23255934  0.84939487  0.57222523     0.17400
C1339       C  0.28149072  0.90292136  0.97776874     0.89200
C1340       C  0.31672470  0.89415833  0.98596560    -0.51000
C1341       C  0.33917373  0.91356801  0.97329983     0.12100
C1342       C  0.32443769  0.94018640  0.95356857     0.23100
C1343       C  0.27764329  0.93428042  0.99283556    -0.51800
C1344       C  0.30024335  0.95388301  0.98023642     0.12200
C1345       C  0.28026120  0.90666611  0.93765146    -0.51300
C1346       C  0.30274727  0.92610215  0.92485574     0.12800
H1347       H  0.32319007  0.87513933  0.50167683     0.17300
H1348       H  0.34290750  0.95594447  0.94327287     0.03000
H1349       H  0.25878450  0.94095645  0.51184448     0.17600
H1350       H  0.26357342  0.89451122  0.92075147     0.17400
O1351       O  0.50224922  0.55322962  0.90607504    -0.55100
C1352       C  0.49630371  0.51294020  0.99021844     0.77500
O1353       O  0.54102035  0.60412713  0.99051552    -0.56300
C1354       C  0.50086868  0.57759967  0.89012930     0.77500
C1355       C  0.43452358  0.58474614  0.98924611     0.79900
Cd1356     Cd  0.49854389  0.57088437  0.96456162     1.37500
O1357       O  0.49756472  0.51813456  0.95746217    -0.55100
O1358       O  0.43995586  0.56628510  0.96511018    -0.53900
C1359       C  0.56245235  0.58387506  0.99049610     0.79800
O1360       O  0.45869271  0.59925904  0.00094511    -0.56300
O1361       O  0.49648054  0.53468142  0.51108459    -0.54700
O1362       O  0.49882601  0.60074121  0.90882216    -0.54700
O1363       O  0.55427180  0.55912129  0.97834101    -0.53900
C1364       C  0.78207037  0.65438628  0.97816218     0.89200
C1365       C  0.81721259  0.64517242  0.98608079    -0.51000
C1366       C  0.83986041  0.66434220  0.97331907     0.12100
C1367       C  0.82542004  0.69123499  0.95388388     0.23100
C1368       C  0.77874104  0.68572444  0.99339085    -0.51800
C1369       C  0.80151576  0.70511924  0.98072675     0.12200
C1370       C  0.78070650  0.65828707  0.93804974    -0.51300
C1371       C  0.80342904  0.67750537  0.92523458     0.12800
H1372       H  0.82355697  0.62549410  0.50012403     0.17300
H1373       H  0.84406093  0.70680865  0.94354675     0.03000
H1374       H  0.76021676  0.69205143  0.51237238     0.17600
H1375       H  0.76381081  0.64635163  0.92117117     0.17400
C1376       C  0.71539562  0.59288239  0.51515349     0.89200
C1377       C  0.71923260  0.56134629  0.00023862    -0.51000
C1378       C  0.69666044  0.54192713  0.51284756     0.12100
C1379       C  0.67220482  0.55574609  0.53910438     0.23100
C1380       C  0.68023964  0.60162898  0.50649849    -0.51800
C1381       C  0.65766935  0.58229543  0.51908459     0.12200
C1382       C  0.71622450  0.58931688  0.55532642    -0.51300
C1383       C  0.69361622  0.56990560  0.56795450     0.12800
H1384       H  0.73810414  0.55516222  0.98152539     0.17300
H1385       H  0.65364295  0.54002903  0.54929870     0.03000
H1386       H  0.67391634  0.62128881  0.99138301     0.17600
H1387       H  0.73283587  0.60144101  0.57234272     0.17400
O1388       O  0.00126464  0.69184503  0.58509330    -0.55100
C1389       C  0.99624873  0.73294210  0.00304440     0.77500
O1390       O  0.04032075  0.64093596  0.50071761    -0.56300
C1391       C  0.00021573  0.66736738  0.60085604     0.77500
C1392       C  0.93456656  0.65996898  0.50116689     0.79900
Cd1393     Cd  0.99812621  0.67453524  0.52659008     1.37500
O1394       O  0.99573644  0.72737482  0.53558216    -0.55100
O1395       O  0.93925568  0.67415667  0.52929054    -0.53900
C1396       C  0.06207244  0.66089352  0.50136387     0.79800
O1397       O  0.95943299  0.64952762  0.48568551    -0.56300
O1398       O  0.99598075  0.71142492  0.98176681    -0.54700
O1399       O  0.99873988  0.64425699  0.58200016    -0.54700
O1400       O  0.05423903  0.68554603  0.51409416    -0.53900
C1401       C  0.28208405  0.59213225  0.51489283     0.89200
C1402       C  0.31719911  0.60106751  0.50636777    -0.51000
C1403       C  0.33986808  0.58183098  0.51897254     0.12100
C1404       C  0.32544899  0.55516980  0.53889485     0.23100
C1405       C  0.27833115  0.56071125  0.50002990    -0.51800
C1406       C  0.30111545  0.54126623  0.51254868     0.12200
C1407       C  0.28118022  0.58850549  0.55507123    -0.51300
C1408       C  0.30388990  0.56918317  0.56773073     0.12800
H1409       H  0.32334838  0.62022060  0.99105410     0.17300
H1410       H  0.34408226  0.53952415  0.54909971     0.03000
H1411       H  0.25938070  0.55392790  0.98144219     0.17600
H1412       H  0.26444471  0.60051708  0.57205982     0.17400
C1413       C  0.21474209  0.65262950  0.97735578     0.89200
C1414       C  0.21807887  0.68405572  0.99229232    -0.51000
C1415       C  0.19506053  0.70328885  0.97981367     0.12100
C1416       C  0.17089772  0.68915195  0.95342375     0.23100
C1417       C  0.17976071  0.64328462  0.98584376    -0.51800
C1418       C  0.15684607  0.66228796  0.97329117     0.12200
C1419       C  0.21561071  0.65631868  0.93719971    -0.51300
C1420       C  0.19263600  0.67538149  0.92455715     0.12800
H1421       H  0.23679403  0.69102391  0.51136809     0.17300
H1422       H  0.15205025  0.70459894  0.94324522     0.03000
H1423       H  0.17376376  0.62408622  0.50060255     0.17600
H1424       H  0.23243948  0.64443500  0.92019016     0.17400
C1425       C  0.23893559  0.63137819  0.99067219    -0.10600
C1426       C  0.25812406  0.61360888  0.50154240    -0.12100
C1427       C  0.09454471  0.65675782  0.48833150    -0.10600
C1428       C  0.12263770  0.65797470  0.98021771    -0.12100
C1429       C  0.87417778  0.66001078  0.97950412    -0.10600
C1430       C  0.90224954  0.65764604  0.48709398    -0.12100
C1431       C  0.75816298  0.63288098  0.99154178    -0.10600
C1432       C  0.73923540  0.61450582  0.50191341    -0.12100
C1433       C  0.59498979  0.58786835  0.00341648    -0.10600
C1434       C  0.62335190  0.58608655  0.51228477    -0.12100
C1435       C  0.40218314  0.58762968  0.00313851    -0.10600
C1436       C  0.37415678  0.58579816  0.51211320    -0.12100
C1437       C  0.30153191  0.98451920  0.99187639    -0.10600
C1438       C  0.30223681  0.51052910  0.50133136    -0.12100
C1439       C  0.19387243  0.76015685  0.50075774    -0.10600
C1440       C  0.19375275  0.73404565  0.99099593    -0.12100
C1441       C  0.25782409  0.88116393  0.99106232    -0.10600
C1442       C  0.23891465  0.86305752  0.50195253    -0.12100
C1443       C  0.09463023  0.83739535  0.00411204    -0.10600
C1444       C  0.12266209  0.83612480  0.51244655    -0.12100
C1445       C  0.69456485  0.98558677  0.99205002    -0.10600
C1446       C  0.69557623  0.51120683  0.50160038    -0.12100
C1447       C  0.80288052  0.73581479  0.99211389    -0.10600
C1448       C  0.80257068  0.76144957  0.50171980    -0.12100
C1449       C  0.90192016  0.83925817  0.00515716    -0.10600
C1450       C  0.87311357  0.83782395  0.51420633    -0.12100
C1451       C  0.75676524  0.86393558  0.50242414    -0.10600
C1452       C  0.73835720  0.88238804  0.99179856    -0.12100
C1453       C  0.62240548  0.91058475  0.98115932    -0.10600
C1454       C  0.59389791  0.90881166  0.48952976    -0.12100
C1455       C  0.40150740  0.90844252  0.48996116    -0.10600
C1456       C  0.37348539  0.90992818  0.98027573    -0.12100
C1457       C  0.18899627  0.81333310  0.60505824    -0.10600
C1458       C  0.18913928  0.81297769  0.63696377    -0.12100
C1459       C  0.30633744  0.93032213  0.85533990    -0.10600
C1460       C  0.30645298  0.93066420  0.88725588    -0.12100
C1461       C  0.25763833  0.88001342  0.75174861    -0.10600
C1462       C  0.23907859  0.86134440  0.74099508    -0.12100
C1463       C  0.09503249  0.83630358  0.73891591    -0.10600
C1464       C  0.12316480  0.83412769  0.73011016    -0.12100
C1465       C  0.68911182  0.93161088  0.85620004    -0.10600
C1466       C  0.68909467  0.93171242  0.88810525    -0.12100
C1467       C  0.80659881  0.81485619  0.63799160    -0.10600
C1468       C  0.80651468  0.81493624  0.60609723    -0.12100
C1469       C  0.87346784  0.83548944  0.73082417    -0.10600
C1470       C  0.90180563  0.83703631  0.73918938    -0.12100
C1471       C  0.75737058  0.86359389  0.74206877    -0.10600
C1472       C  0.73834591  0.88194156  0.75266584    -0.12100
C1473       C  0.37335747  0.90770008  0.76343622    -0.10600
C1474       C  0.40154200  0.90581393  0.75477764    -0.12100
C1475       C  0.59401444  0.90785519  0.75537273    -0.10600
C1476       C  0.62226644  0.90961145  0.76389748    -0.12100
C1477       C  0.30762748  0.56370944  0.63716590    -0.10600
C1478       C  0.30765319  0.56419307  0.60525190    -0.12100
C1479       C  0.30285262  0.50856551  0.74077152    -0.10600
C1480       C  0.30190282  0.98312961  0.75052563    -0.12100
C1481       C  0.18866471  0.67972656  0.85508313    -0.10600
C1482       C  0.18861079  0.67996825  0.88699892    -0.12100
C1483       C  0.19453794  0.75826291  0.74067868    -0.10600
C1484       C  0.19440062  0.73272038  0.75050426    -0.12100
C1485       C  0.25782660  0.61130481  0.74168131    -0.10600
C1486       C  0.23883614  0.62969425  0.75225027    -0.12100
C1487       C  0.12272855  0.65717895  0.76211185    -0.10600
C1488       C  0.09452492  0.65568626  0.75337577    -0.12100
C1489       C  0.68997165  0.56476088  0.63737081    -0.10600
C1490       C  0.68983005  0.56500669  0.60546609    -0.12100
C1491       C  0.69494914  0.51034585  0.74127837    -0.10600
C1492       C  0.69393764  0.98486050  0.75165473    -0.12100
C1493       C  0.80735013  0.68178797  0.85574839    -0.10600
C1494       C  0.80725897  0.68205991  0.88765824    -0.12100
C1495       C  0.80135940  0.76052861  0.74163513    -0.10600
C1496       C  0.80153064  0.73502174  0.75144896    -0.12100
C1497       C  0.87443631  0.66084922  0.76283834    -0.10600
C1498       C  0.90257123  0.65908921  0.75383314    -0.12100
C1499       C  0.75883624  0.63152209  0.75212268    -0.10600
C1500       C  0.73997373  0.61308337  0.74140264    -0.12100
C1501       C  0.59538341  0.58760996  0.73856195    -0.10600
C1502       C  0.62371065  0.58603766  0.73023398    -0.12100
C1503       C  0.40230074  0.58661757  0.73872140    -0.10600
C1504       C  0.37408239  0.58445549  0.73012196    -0.12100
loop_ 
_geom_bond_atom_site_label_1 
_geom_bond_atom_site_label_2 
_geom_bond_distance 
_geom_bond_site_symmetry_2 
_ccdc_geom_bond_type 
O1            C4   1.260       .  A
O1           Cd6   2.360       .  S
C2           O11   1.266       .  A
C2            O7   1.264       .  A
C2          C830   1.445   1_545  S
O3            C9   1.269       .  A
O3           Cd6   2.499       .  S
C4           O12   1.268       .  A
C4          C226   1.455       .  S
C5           O10   1.270       .  A
C5            O8   1.258       .  A
C5          C373   1.432       .  S
Cd6          O13   2.410       .  S
Cd6          O12   2.511       .  S
Cd6          O11   2.415       .  S
Cd6           O7   2.409       .  S
Cd6          O10   2.505       .  S
Cd6           O8   2.404       .  S
C9           O13   1.259       .  A
C9          C375   1.432       .  S
C14          C15   1.539       .  S
C14          C20   1.532       .  S
C14          C18   1.530       .  S
C14         C371   1.473       .  S
C15          H22   1.086       .  S
C15          C16   1.369       .  D
C16          C17   1.545       .  S
C16         C368   1.456       .  S
C17          C21   1.542       .  S
C17          C19   1.542       .  S
C17          H23   1.111       .  S
C18          H24   1.087       .  S
C18          C19   1.361       .  D
C19         C369   1.441       .  S
C20          H25   1.087       .  S
C20          C21   1.365       .  D
C21         C365   1.448       .  S
C26          C27   1.530       .  S
C26          C32   1.532       .  S
C26          C30   1.539       .  S
C26         C372   1.473       .  S
C27          H34   1.086       .  S
C27          C28   1.361       .  D
C28          C29   1.542       .  S
C28         C374   1.440       .  S
C29          C33   1.542       .  S
C29          C31   1.546       .  S
C29          H35   1.111       .  S
C30          H36   1.086       .  S
C30          C31   1.369       .  D
C31         C363   1.457       .  S
C32          H37   1.087       .  S
C32          C33   1.364       .  D
C33         C361   1.448       .  S
O38          C41   1.259       .  A
O38         Cd43   2.358       .  S
C39          O48   1.266       .  A
C39          O44   1.265       .  A
C39         C115   1.445       .  S
O40          C46   1.269       .  A
O40         Cd43   2.500       .  S
C41          O49   1.268       .  A
C41         C263   1.456       .  S
C42          O47   1.270       .  A
C42          O45   1.258       .  A
C42         C360   1.432       .  S
Cd43         O50   2.414       .  S
Cd43         O49   2.518       .  S
Cd43         O48   2.407       .  S
Cd43         O44   2.413       .  S
Cd43         O47   2.502   1_655  S
Cd43         O45   2.403   1_655  S
C46          O50   1.259       .  A
C46         C370   1.433       .  S
C51          C52   1.529       .  S
C51          C57   1.532       .  S
C51          C55   1.539       .  S
C51         C358   1.472       .  S
C52          H59   1.087       .  S
C52          C53   1.360       .  D
C53          C54   1.543       .  S
C53         C359   1.440       .  S
C54          C58   1.542       .  S
C54          C56   1.546       .  S
C54          H60   1.111       .  S
C55          H61   1.086       .  S
C55          C56   1.368       .  D
C56         C356   1.457       .  S
C57          H62   1.087       .  S
C57          C58   1.365       .  D
C58         C353   1.448       .  S
C63          C64   1.538       .  S
C63          C69   1.532       .  S
C63          C67   1.529       .  S
C63         C357   1.471       .  S
C64          H71   1.086       .  S
C64          C65   1.368       .  D
C65          C66   1.546       .  S
C65         C351   1.457       .  S
C66          C70   1.543       .  S
C66          C68   1.542       .  S
C66          H72   1.111       .  S
C67          H73   1.087       .  S
C67          C68   1.360       .  D
C68         C376   1.440       .  S
C69          H74   1.087       .  S
C69          C70   1.365       .  D
C70         C349   1.449       .  S
O75          C78   1.264       .  A
O75         Cd80   2.406       .  S
C76          O85   1.269       .  A
C76          O81   1.259       .  A
C76         C152   1.454       .  S
O77          C83   1.270       .  A
O77         Cd80   2.502       .  S
C78          O86   1.266       .  A
C78         C754   1.445       .  S
C79          O84   1.269       .  A
C79          O82   1.259       .  A
C79         C346   1.431       .  S
Cd80         O87   2.405       .  S
Cd80         O86   2.416       .  S
Cd80         O85   2.514       .  S
Cd80         O81   2.349       .  S
Cd80         O84   2.496       .  S
Cd80         O82   2.407       .  S
C83          O87   1.259       .  A
C83         C347   1.432       .  S
C88          C89   1.538       .  S
C88          C94   1.532       .  S
C88          C92   1.530       .  S
C88         C343   1.471       .  S
C89          H96   1.086       .  S
C89          C90   1.368       .  D
C90          C91   1.545       .  S
C90         C367   1.456       .  S
C91          C95   1.542       .  S
C91          C93   1.542       .  S
C91          H97   1.111       .  S
C92          H98   1.086       .  S
C92          C93   1.361       .  D
C93         C341   1.442       .  S
C94          H99   1.087       .  S
C94          C95   1.364       .  D
C95         C339   1.447       .  S
C100        C101   1.530       .  S
C100        C106   1.532       .  S
C100        C104   1.538       .  S
C100        C344   1.471       .  S
C101        H108   1.087       .  S
C101        C102   1.360       .  D
C102        C103   1.542       .  S
C102        C348   1.440       .  S
C103        C107   1.542       .  S
C103        C105   1.546       .  S
C103        H109   1.111       .  S
C104        H110   1.086       .  S
C104        C105   1.368       .  D
C105        C364   1.457       .  S
C106        H111   1.087       .  S
C106        C107   1.364       .  D
C107        C337   1.448       .  S
O112        C115   1.265       .  A
O112       Cd117   2.402       .  S
C113        O122   1.268       .  A
C113        O118   1.260       .  A
C113        C189   1.455       .  S
O114        C120   1.270       .  A
O114       Cd117   2.496   1_455  S
C115        O123   1.266   1_655  A
C116        O121   1.270       .  A
C116        O119   1.259       .  A
C116        C342   1.434       .  S
Cd117       O124   2.402   1_655  S
Cd117       O123   2.415   1_655  S
Cd117       O122   2.516       .  S
Cd117       O118   2.358       .  S
Cd117       O121   2.504       .  S
Cd117       O119   2.409       .  S
C120        O124   1.259       .  A
C120        C335   1.431       .  S
C125        C126   1.539       .  S
C125        C131   1.532       .  S
C125        C129   1.529       .  S
C125        C333   1.472       .  S
C126        H133   1.086       .  S
C126        C127   1.369       .  D
C127        C128   1.546       .  S
C127        C352   1.457       .  S
C128        C132   1.542       .  S
C128        C130   1.542       .  S
C128        H134   1.111       .  S
C129        H135   1.087       .  S
C129        C130   1.360       .  D
C130        C345   1.439       .  S
C131        H136   1.087       .  S
C131        C132   1.365       .  D
C132        C331   1.449       .  S
C137        C138   1.529       .  S
C137        C143   1.532       .  S
C137        C141   1.539       .  S
C137        C334   1.472       .  S
C138        H145   1.087       .  S
C138        C139   1.360       .  D
C139        C140   1.542       .  S
C139        C336   1.439       .  S
C140        C144   1.542       .  S
C140        C142   1.546       .  S
C140        H146   1.111       .  S
C141        H147   1.086       .  S
C141        C142   1.369       .  D
C142        C355   1.457       .  S
C143        H148   1.087       .  S
C143        C144   1.365       .  D
C144        C330   1.448       .  S
O149        C152   1.260       .  A
O149       Cd154   2.351       .  S
C150        O159   1.265       .  A
C150        O531   1.264       .  A
C150        C976   1.444       .  S
O151        C157   1.270   1_556  A
O151       Cd154   2.500   1_556  S
C152        O160   1.269       .  A
C153        O158   1.269   1_554  A
C153        O156   1.260       .  A
C153        C327   1.432   1_554  S
Cd154       O161   2.407       .  S
Cd154       O160   2.512       .  S
Cd154       O155   2.410       .  S
Cd154       O158   2.494   1_554  S
Cd154       O156   2.411       .  S
Cd154       O535   2.409   1_554  S
O155        C526   1.264       .  A
C157        O161   1.259       .  A
C157        C326   1.433   1_554  S
O159       Cd530   2.410       .  S
C162        C163   1.529       .  S
C162        C168   1.532       .  S
C162        C166   1.539       .  S
C162        C323   1.471       .  S
C163        H546   1.087   1_554  S
C163        C164   1.360       .  D
C164        C165   1.542       .  S
C164        C322   1.440       .  S
C165        C169   1.542       .  S
C165        C167   1.546       .  S
C165        H171   1.111       .  S
C166        H548   1.086   1_554  S
C166        C167   1.369       .  D
C167        C320   1.457       .  S
C168        H173   1.087       .  S
C168        C169   1.364       .  D
C169        C340   1.447       .  S
H170        C539   1.087       .  S
H172        C542   1.086       .  S
C174        C175   1.539       .  S
C174        C180   1.532       .  S
C174        C178   1.529       .  S
C174        C324   1.471       .  S
C175        H558   1.086       .  S
C175        C176   1.368       .  D
C176        C177   1.546       .  S
C176        C317   1.456       .  S
C177        C181   1.542       .  S
C177        C179   1.542       .  S
C177        H183   1.111       .  S
C178        H560   1.087       .  S
C178        C179   1.360       .  D
C179        C325   1.440       .  S
C180        H185   1.087       .  S
C180        C181   1.364       .  D
C181        C338   1.448       .  S
H182        C551   1.086   1_554  S
H184        C554   1.087   1_554  S
O186        C189   1.259       .  A
O186       Cd191   2.358       .  S
C187        O192   1.264       .  A
C187        O572   1.266       .  A
C187        C261   1.446       .  S
O188        C194   1.269       .  A
O188       Cd191   2.502   1_455  S
C189        O197   1.268       .  A
C190        O195   1.269       .  A
C190        O193   1.259       .  A
C190        C321   1.432       .  S
Cd191       O198   2.405   1_655  S
Cd191       O197   2.516       .  S
Cd191       O192   2.408       .  S
Cd191       O195   2.501       .  S
Cd191       O193   2.407       .  S
Cd191       O572   2.419       .  S
C194        O198   1.259       .  A
C194        C315   1.432       .  S
O196        C563   1.266   1_554  A
O196       Cd567   2.417   1_554  S
C199        C205   1.532       .  S
C199        C203   1.529       .  S
C199        C576   1.539   1_554  S
C199        C314   1.472       .  S
C200        C575   1.540       .  S
C200        H207   1.086       .  S
C200        C577   1.369       .  D
C201        C202   1.546       .  S
C201        C576   1.369   1_554  D
C201        C311   1.458       .  S
C202        C206   1.542       .  S
C202        C204   1.543       .  S
C202        H208   1.111       .  S
C203        H585   1.087   1_554  S
C203        C204   1.360       .  D
C204        C316   1.441       .  S
C205        H210   1.087       .  S
C205        C206   1.364       .  D
C206        C329   1.448       .  S
H209        C579   1.087       .  S
C211        C212   1.529       .  S
C211        C217   1.532       .  S
C211        C215   1.539       .  S
C211        C313   1.472       .  S
C212        H595   1.087       .  S
C212        C213   1.360       .  D
C213        C214   1.542       .  S
C213        C328   1.440       .  S
C214        C218   1.543       .  S
C214        C216   1.546       .  S
C214        H220   1.111       .  S
C215        H597   1.086       .  S
C215        C216   1.369       .  D
C216        C309   1.457       .  S
C217        H222   1.087       .  S
C217        C218   1.364       .  D
C218        C332   1.448       .  S
H219        C588   1.087   1_554  S
H221        C591   1.086   1_554  S
O223        C226   1.260       .  A
O223       Cd228   2.363       .  S
C224        O229   1.265       .  A
C224        O609   1.266       .  A
C224        C902   1.444   1_545  S
O225        C231   1.270       .  A
O225       Cd228   2.501       .  S
C226        O234   1.268       .  A
C227        O232   1.269       .  A
C227        O230   1.260       .  A
C227        C307   1.432       .  S
Cd228       O235   2.403       .  S
Cd228       O234   2.509       .  S
Cd228       O229   2.405       .  S
Cd228       O232   2.494       .  S
Cd228       O230   2.409       .  S
Cd228       O609   2.412       .  S
C231        O235   1.258       .  A
C231        C305   1.432       .  S
O233        C600   1.266   1_554  A
O233       Cd604   2.411   1_554  S
C236        C237   1.529       .  S
C236        C242   1.532       .  S
C236        C240   1.539       .  S
C236        C303   1.472       .  S
C237        H620   1.087       .  S
C237        C238   1.360       .  D
C238        C239   1.542       .  S
C238        C301   1.439       .  S
C239        C243   1.542       .  S
C239        C241   1.546       .  S
C239        H245   1.111       .  S
C240        H622   1.086       .  S
C240        C241   1.369       .  D
C241        C319   1.457       .  S
C242        H247   1.087       .  S
C242        C243   1.364       .  D
C243        C366   1.448       .  S
H244        C613   1.087       .  S
H246        C616   1.086   1_554  S
C248        C254   1.532       .  S
C248        C252   1.529       .  S
C248        C625   1.539       .  S
C248        C304   1.472       .  S
C249        C624   1.539       .  S
C249        H256   1.086       .  S
C249        C626   1.369       .  D
C250        C251   1.545       .  S
C250        C625   1.369       .  D
C250        C318   1.456       .  S
C251        C255   1.542       .  S
C251        C253   1.542       .  S
C251        H257   1.111       .  S
C252        H634   1.087   1_554  S
C252        C253   1.360       .  D
C253        C306   1.440       .  S
C254        H259   1.087       .  S
C254        C255   1.364       .  D
C255        C362   1.448       .  S
H258        C628   1.087       .  S
O260        C263   1.260       .  A
O260       Cd265   2.354       .  S
C261        O270   1.266       .  A
C261        O642   1.265       .  A
O262        C268   1.270   1_556  A
O262       Cd265   2.501   1_456  S
C263        O271   1.269       .  A
C264        O269   1.268   1_554  A
C264        O267   1.259       .  A
C264        C302   1.431   1_554  S
Cd265       O272   2.403   1_655  S
Cd265       O271   2.513       .  S
Cd265       O266   2.415       .  S
Cd265       O269   2.492   1_554  S
Cd265       O267   2.408       .  S
Cd265       O646   2.422   1_554  S
O266        C637   1.263       .  A
C268        O272   1.259       .  A
C268        C299   1.432   1_554  S
O270       Cd641   2.413       .  S
C273        C274   1.529       .  S
C273        C279   1.532       .  S
C273        C277   1.539       .  S
C273        C298   1.472       .  S
C274        H657   1.087   1_554  S
C274        C275   1.360       .  D
C275        C276   1.543       .  S
C275        C308   1.440       .  S
C276        C280   1.543       .  S
C276        C278   1.546       .  S
C276        H282   1.111       .  S
C277        H659   1.086   1_554  S
C277        C278   1.368       .  D
C278        C310   1.457       .  S
C279        H284   1.087       .  S
C279        C280   1.364       .  D
C280        C350   1.449       .  S
H281        C650   1.087       .  S
H283        C653   1.086       .  S
C285        C286   1.538       .  S
C285        C291   1.532       .  S
C285        C289   1.529       .  S
C285        C297   1.471       .  S
C286        H669   1.086       .  S
C286        C287   1.368       .  D
C287        C288   1.546       .  S
C287        C312   1.456       .  S
C288        C292   1.543       .  S
C288        C290   1.543       .  S
C288        H294   1.111       .  S
C289        H671   1.087       .  S
C289        C290   1.360       .  D
C290        C300   1.440       .  S
C291        H296   1.087       .  S
C291        C292   1.364       .  D
C292        C354   1.448       .  S
H293        C662   1.086   1_554  S
H295        C665   1.087   1_554  S
C297        C674   1.208       .  T
C298        C673   1.208   1_554  T
C299        C676   1.205       .  T
C300        C675   1.205       .  T
C301        C678   1.204       .  T
C302        C677   1.204       .  T
C303        C680   1.209       .  T
C304        C679   1.208   1_554  T
C305        C682   1.205       .  T
C306        C681   1.205       .  T
C307        C684   1.205       .  T
C308        C683   1.205       .  T
C309       C1438   1.215       .  T
C310       C1437   1.215   1_544  T
C311        C688   1.215   1_554  T
C312        C687   1.215       .  T
C313        C690   1.208       .  T
C314        C689   1.209   1_554  T
C315        C692   1.204       .  T
C316        C691   1.205       .  T
C317       C1446   1.215       .  T
C318       C1445   1.215   1_544  T
C319        C696   1.215       .  T
C320        C695   1.215   1_554  T
C321        C698   1.205       .  T
C322        C697   1.204       .  T
C323        C700   1.208   1_554  T
C324        C699   1.208       .  T
C325        C702   1.205       .  T
C326        C701   1.205       .  T
C327        C704   1.205       .  T
C328        C703   1.204       .  T
C329        C330   1.210       .  T
C331        C332   1.210       .  T
C333        C334   1.209       .  T
C335        C336   1.204       .  T
C337        C338   1.210       .  T
C339        C340   1.209       .  T
C341        C342   1.206       .  T
C343        C344   1.208       .  T
C345        C346   1.204       .  T
C347        C348   1.205       .  T
C349        C350   1.210       .  T
C351       C1104   1.215   1_545  T
C352       C1103   1.215       .  T
C353        C354   1.210       .  T
C355        C356   1.215       .  T
C357        C358   1.208       .  T
C359        C360   1.204       .  T
C361        C362   1.210       .  T
C363       C1116   1.215   1_545  T
C364       C1115   1.215       .  T
C365        C366   1.210       .  T
C367        C368   1.214       .  T
C369        C370   1.205       .  T
C371        C372   1.209       .  T
C373        C374   1.205       .  T
C375        C376   1.205       .  T
O377        C380   1.260       .  A
O377       Cd382   2.360       .  S
C378        O387   1.266       .  A
C378        O383   1.264       .  A
C378       C1206   1.444   1_545  S
O379        C385   1.269       .  A
O379       Cd382   2.495       .  S
C380        O388   1.269       .  A
C380        C602   1.455       .  S
C381        O386   1.270       .  A
C381        O384   1.258       .  A
C381        C749   1.432       .  S
Cd382       O389   2.412       .  S
Cd382       O388   2.509       .  S
Cd382       O387   2.410       .  S
Cd382       O383   2.411       .  S
Cd382       O386   2.505       .  S
Cd382       O384   2.404       .  S
C385        O389   1.260       .  A
C385        C751   1.432       .  S
C390        C391   1.539       .  S
C390        C396   1.532       .  S
C390        C394   1.530       .  S
C390        C747   1.472       .  S
C391        H398   1.086       .  S
C391        C392   1.368       .  D
C392        C393   1.545       .  S
C392        C744   1.456       .  S
C393        C397   1.542       .  S
C393        C395   1.542       .  S
C393        H399   1.111       .  S
C394        H400   1.087       .  S
C394        C395   1.360       .  D
C395        C745   1.440       .  S
C396        H401   1.087       .  S
C396        C397   1.364       .  D
C397        C741   1.447       .  S
C402        C403   1.530       .  S
C402        C408   1.532       .  S
C402        C406   1.539       .  S
C402        C748   1.472       .  S
C403        H410   1.087       .  S
C403        C404   1.361       .  D
C404        C405   1.542       .  S
C404        C750   1.440       .  S
C405        C409   1.542       .  S
C405        C407   1.546       .  S
C405        H411   1.111       .  S
C406        H412   1.086       .  S
C406        C407   1.368       .  D
C407        C739   1.456       .  S
C408        H413   1.087       .  S
C408        C409   1.364       .  D
C409        C737   1.447       .  S
O414        C417   1.259       .  A
O414       Cd419   2.355       .  S
C415        O424   1.266       .  A
C415        O420   1.265       .  A
C415        C491   1.445       .  S
O416        C422   1.270       .  A
O416       Cd419   2.503       .  S
C417        O425   1.268       .  A
C417        C639   1.455       .  S
C418        O423   1.269       .  A
C418        O421   1.259       .  A
C418        C736   1.431       .  S
Cd419       O426   2.403       .  S
Cd419       O425   2.515       .  S
Cd419       O424   2.412   1_655  S
Cd419       O420   2.408   1_655  S
Cd419       O423   2.496   1_655  S
Cd419       O421   2.404   1_655  S
C422        O426   1.258       .  A
C422        C746   1.432       .  S
C427        C428   1.529       .  S
C427        C433   1.532       .  S
C427        C431   1.539       .  S
C427        C734   1.471       .  S
C428        H435   1.087       .  S
C428        C429   1.360       .  D
C429        C430   1.542       .  S
C429        C735   1.439       .  S
C430        C434   1.542       .  S
C430        C432   1.546       .  S
C430        H436   1.111       .  S
C431        H437   1.086       .  S
C431        C432   1.369       .  D
C432        C732   1.457       .  S
C433        H438   1.087       .  S
C433        C434   1.365       .  D
C434        C729   1.448       .  S
C439        C440   1.538       .  S
C439        C445   1.532       .  S
C439        C443   1.529       .  S
C439        C733   1.471       .  S
C440        H447   1.086       .  S
C440        C441   1.369       .  D
C441        C442   1.546       .  S
C441        C727   1.457       .  S
C442        C446   1.543       .  S
C442        C444   1.542       .  S
C442        H448   1.111       .  S
C443        H449   1.087       .  S
C443        C444   1.360       .  D
C444        C752   1.440       .  S
C445        H450   1.087       .  S
C445        C446   1.364       .  D
C446        C725   1.448       .  S
O451        C454   1.264       .  A
O451       Cd456   2.402       .  S
C452        O461   1.269       .  A
C452        O457   1.259       .  A
C452        C528   1.454       .  S
O453        C459   1.269       .  A
O453       Cd456   2.499       .  S
C454        O462   1.266       .  A
C454       C1130   1.444       .  S
C455        O460   1.269       .  A
C455        O458   1.259       .  A
C455        C722   1.431       .  S
Cd456       O463   2.404       .  S
Cd456       O462   2.417       .  S
Cd456       O461   2.514       .  S
Cd456       O457   2.349       .  S
Cd456       O460   2.496       .  S
Cd456       O458   2.404       .  S
C459        O463   1.259       .  A
C459        C723   1.431       .  S
C464        C465   1.538       .  S
C464        C470   1.531       .  S
C464        C468   1.530       .  S
C464        C719   1.472       .  S
C465        H472   1.086       .  S
C465        C466   1.368       .  D
C466        C467   1.545       .  S
C466        C743   1.456       .  S
C467        C471   1.542       .  S
C467        C469   1.542       .  S
C467        H473   1.111       .  S
C468        H474   1.086       .  S
C468        C469   1.361       .  D
C469        C717   1.442       .  S
C470        H475   1.087       .  S
C470        C471   1.364       .  D
C471        C715   1.447       .  S
C476        C477   1.529       .  S
C476        C482   1.532       .  S
C476        C480   1.539       .  S
C476        C720   1.472       .  S
C477        H484   1.087       .  S
C477        C478   1.360       .  D
C478        C479   1.542       .  S
C478        C724   1.439       .  S
C479        C483   1.542       .  S
C479        C481   1.545       .  S
C479        H485   1.111       .  S
C480        H486   1.086       .  S
C480        C481   1.368       .  D
C481        C740   1.456       .  S
C482        H487   1.087       .  S
C482        C483   1.364       .  D
C483        C713   1.448       .  S
O488        C491   1.265       .  A
O488       Cd493   2.406       .  S
C489        O498   1.268       .  A
C489        O494   1.260   1_655  A
C489        C565   1.456       .  S
O490        C496   1.269       .  A
O490       Cd493   2.497       .  S
C491        O499   1.267       .  A
C492        O497   1.270       .  A
C492        O495   1.259       .  A
C492        C718   1.434       .  S
Cd493       O500   2.403       .  S
Cd493       O499   2.413       .  S
Cd493       O498   2.516   1_455  S
Cd493       O494   2.359       .  S
Cd493       O497   2.505   1_455  S
Cd493       O495   2.411   1_455  S
C496        O500   1.259       .  A
C496        C711   1.430       .  S
C501        C502   1.539       .  S
C501        C507   1.532       .  S
C501        C505   1.528       .  S
C501        C709   1.471       .  S
C502        H509   1.086       .  S
C502        C503   1.369       .  D
C503        C504   1.545       .  S
C503        C728   1.457       .  S
C504        C508   1.542       .  S
C504        C506   1.542       .  S
C504        H510   1.111       .  S
C505        H511   1.087       .  S
C505        C506   1.360       .  D
C506        C721   1.439       .  S
C507        H512   1.087       .  S
C507        C508   1.364       .  D
C508        C707   1.448       .  S
C513        C514   1.528       .  S
C513        C519   1.532       .  S
C513        C517   1.539       .  S
C513        C710   1.470       .  S
C514        H521   1.087       .  S
C514        C515   1.360       .  D
C515        C516   1.542       .  S
C515        C712   1.438       .  S
C516        C520   1.542       .  S
C516        C518   1.546       .  S
C516        H522   1.111       .  S
C517        H523   1.086       .  S
C517        C518   1.369       .  D
C518        C731   1.457       .  S
C519        H524   1.087       .  S
C519        C520   1.364       .  D
C520        C706   1.447       .  S
O525        C528   1.260       .  A
O525       Cd530   2.350       .  S
C526        O535   1.265   1_554  A
C526       C1352   1.444   1_554  S
O527        C533   1.270       .  A
O527       Cd530   2.499       .  S
C528        O536   1.269       .  A
C529        O534   1.269       .  A
C529        O532   1.260       .  A
C529        C703   1.432       .  S
Cd530       O537   2.406       .  S
Cd530       O536   2.511       .  S
Cd530       O531   2.410       .  S
Cd530       O534   2.491       .  S
Cd530       O532   2.410       .  S
C533        O537   1.259       .  A
C533        C702   1.432       .  S
C538        C539   1.529       .  S
C538        C544   1.532       .  S
C538        C542   1.539       .  S
C538        C699   1.471       .  S
C539        C540   1.360       .  D
C540        C541   1.542       .  S
C540        C698   1.440       .  S
C541        C545   1.542       .  S
C541        C543   1.546       .  S
C541        H547   1.111       .  S
C542        C543   1.369       .  D
C543        C696   1.457       .  S
C544        H549   1.087       .  S
C544        C545   1.364       .  D
C545        C716   1.447       .  S
C550        C551   1.539       .  S
C550        C556   1.532       .  S
C550        C554   1.529       .  S
C550        C700   1.472       .  S
C551        C552   1.369       .  D
C552        C553   1.546       .  S
C552        C693   1.457       .  S
C553        C557   1.543       .  S
C553        C555   1.543       .  S
C553        H559   1.111       .  S
C554        C555   1.360       .  D
C555        C701   1.440       .  S
C556        H561   1.087       .  S
C556        C557   1.364       .  D
C557        C714   1.448       .  S
O562        C565   1.259   1_455  A
O562       Cd567   2.358   1_455  S
C563        O568   1.265       .  A
C563        C637   1.446   1_556  S
O564        C570   1.270       .  A
O564       Cd567   2.509   1_455  S
C565        O573   1.268       .  A
C566        O571   1.269   1_556  A
C566        O569   1.259       .  A
C566        C697   1.432   1_556  S
Cd567       O574   2.403   1_655  S
Cd567       O573   2.517       .  S
Cd567       O568   2.411       .  S
Cd567       O571   2.499   1_556  S
Cd567       O569   2.408       .  S
C570        O574   1.258       .  A
C570        C691   1.432   1_556  S
C575        C581   1.532       .  S
C575        C579   1.529       .  S
C575        C690   1.472       .  S
C576        H583   1.086       .  S
C577        C578   1.545       .  S
C577        C687   1.456       .  S
C578        C582   1.541       .  S
C578        C580   1.542       .  S
C578        H584   1.111       .  S
C579        C580   1.360       .  D
C580        C692   1.440       .  S
C581        H586   1.087       .  S
C581        C582   1.364       .  D
C582        C705   1.447       .  S
C587        C588   1.530       .  S
C587        C593   1.532       .  S
C587        C591   1.539       .  S
C587        C689   1.472       .  S
C588        C589   1.360       .  D
C589        C590   1.542       .  S
C589        C704   1.440       .  S
C590        C594   1.543       .  S
C590        C592   1.546       .  S
C590        H596   1.111       .  S
C591        C592   1.369       .  D
C592        C685   1.457       .  S
C593        H598   1.087       .  S
C593        C594   1.364       .  D
C594        C708   1.448       .  S
O599        C602   1.260       .  A
O599       Cd604   2.362       .  S
C600        O605   1.265       .  A
C600       C1278   1.444   1_546  S
O601        C607   1.270       .  A
O601       Cd604   2.503       .  S
C602        O610   1.268       .  A
C603        O608   1.269   1_556  A
C603        O606   1.260       .  A
C603        C683   1.432   1_556  S
Cd604       O611   2.402       .  S
Cd604       O610   2.510       .  S
Cd604       O605   2.406       .  S
Cd604       O608   2.495   1_556  S
Cd604       O606   2.410       .  S
C607        O611   1.258       .  A
C607        C681   1.432   1_556  S
C612        C613   1.529       .  S
C612        C618   1.532       .  S
C612        C616   1.539       .  S
C612        C679   1.471       .  S
C613        C614   1.360       .  D
C614        C615   1.542       .  S
C614        C677   1.439       .  S
C615        C619   1.542       .  S
C615        C617   1.546       .  S
C615        H621   1.111       .  S
C616        C617   1.369       .  D
C617        C695   1.457       .  S
C618        H623   1.087       .  S
C618        C619   1.364       .  D
C619        C742   1.447       .  S
C624        C630   1.532       .  S
C624        C628   1.530       .  S
C624        C680   1.472       .  S
C625        H632   1.086   1_554  S
C626        C627   1.545       .  S
C626        C694   1.456       .  S
C627        C631   1.542       .  S
C627        C629   1.542       .  S
C627        H633   1.111       .  S
C628        C629   1.361       .  D
C629        C682   1.440       .  S
C630        H635   1.087       .  S
C630        C631   1.364       .  D
C631        C738   1.447       .  S
O636        C639   1.259       .  A
O636       Cd641   2.357       .  S
C637        O646   1.265   1_554  A
O638        C644   1.269       .  A
O638       Cd641   2.500   1_455  S
C639        O647   1.268       .  A
C640        O645   1.269       .  A
C640        O643   1.259       .  A
C640        C678   1.431       .  S
Cd641       O648   2.407   1_655  S
Cd641       O647   2.516       .  S
Cd641       O642   2.412       .  S
Cd641       O645   2.499       .  S
Cd641       O643   2.404       .  S
C644        O648   1.259       .  A
C644        C675   1.432       .  S
C649        C650   1.529       .  S
C649        C655   1.532       .  S
C649        C653   1.539       .  S
C649        C674   1.471       .  S
C650        C651   1.360       .  D
C651        C652   1.542       .  S
C651        C684   1.440       .  S
C652        C656   1.542       .  S
C652        C654   1.545       .  S
C652        H658   1.111       .  S
C653        C654   1.368       .  D
C654        C686   1.457       .  S
C655        H660   1.087       .  S
C655        C656   1.365       .  D
C656        C726   1.448       .  S
C661        C662   1.539       .  S
C661        C667   1.532       .  S
C661        C665   1.529       .  S
C661        C673   1.472       .  S
C662        C663   1.369       .  D
C663        C664   1.546       .  S
C663        C688   1.458       .  S
C664        C668   1.542       .  S
C664        C666   1.543       .  S
C664        H670   1.111       .  S
C665        C666   1.360       .  D
C666        C676   1.440       .  S
C667        H672   1.087       .  S
C667        C668   1.364       .  D
C668        C730   1.448       .  S
C685       C1062   1.215   1_556  T
C686       C1061   1.215   1_545  T
C693       C1070   1.215   1_556  T
C694       C1069   1.215   1_545  T
C705        C706   1.209       .  T
C707        C708   1.210       .  T
C709        C710   1.208       .  T
C711        C712   1.204       .  T
C713        C714   1.210       .  T
C715        C716   1.209       .  T
C717        C718   1.206       .  T
C719        C720   1.208       .  T
C721        C722   1.204       .  T
C723        C724   1.204       .  T
C725        C726   1.210       .  T
C727       C1480   1.215   1_545  T
C728       C1479   1.215       .  T
C729        C730   1.210       .  T
C731        C732   1.215       .  T
C733        C734   1.208       .  T
C735        C736   1.204       .  T
C737        C738   1.209       .  T
C739       C1492   1.215   1_545  T
C740       C1491   1.215       .  T
C741        C742   1.209       .  T
C743        C744   1.214       .  T
C745        C746   1.204       .  T
C747        C748   1.208       .  T
C749        C750   1.205       .  T
C751        C752   1.205       .  T
O753        C756   1.260       .  A
O753       Cd758   2.358       .  S
C754        O763   1.266       .  A
C754        O759   1.264       .  A
O755        C761   1.269       .  A
O755       Cd758   2.497       .  S
C756        O764   1.268       .  A
C756        C978   1.454       .  S
C757        O762   1.270       .  A
C757        O760   1.258       .  A
C757       C1125   1.432       .  S
Cd758       O765   2.409       .  S
Cd758       O764   2.509       .  S
Cd758       O763   2.412       .  S
Cd758       O759   2.408       .  S
Cd758       O762   2.505       .  S
Cd758       O760   2.403       .  S
C761        O765   1.259       .  A
C761       C1127   1.432       .  S
C766        C767   1.539       .  S
C766        C772   1.532       .  S
C766        C770   1.530       .  S
C766       C1123   1.472       .  S
C767        H774   1.086       .  S
C767        C768   1.368       .  D
C768        C769   1.545       .  S
C768       C1120   1.455       .  S
C769        C773   1.542       .  S
C769        C771   1.542       .  S
C769        H775   1.111       .  S
C770        H776   1.087       .  S
C770        C771   1.361       .  D
C771       C1121   1.440       .  S
C772        H777   1.087       .  S
C772        C773   1.365       .  D
C773       C1117   1.448       .  S
C778        C779   1.530       .  S
C778        C784   1.532       .  S
C778        C782   1.539       .  S
C778       C1124   1.472       .  S
C779        H786   1.087       .  S
C779        C780   1.360       .  D
C780        C781   1.542       .  S
C780       C1126   1.440       .  S
C781        C785   1.542       .  S
C781        C783   1.546       .  S
C781        H787   1.111       .  S
C782        H788   1.086       .  S
C782        C783   1.369       .  D
C783       C1115   1.457       .  S
C784        H789   1.087       .  S
C784        C785   1.365       .  D
C785       C1113   1.448       .  S
O790        C793   1.259       .  A
O790       Cd795   2.359       .  S
C791        O800   1.266   1_455  A
C791        O796   1.265       .  A
C791        C867   1.445       .  S
O792        C798   1.269       .  A
O792       Cd795   2.500       .  S
C793        O801   1.268       .  A
C793       C1015   1.455       .  S
C794        O799   1.269       .  A
C794        O797   1.258       .  A
C794       C1112   1.431       .  S
Cd795       O802   2.411       .  S
Cd795       O801   2.515       .  S
Cd795       O800   2.412       .  S
Cd795       O796   2.408   1_655  S
Cd795       O799   2.501   1_655  S
Cd795       O797   2.400   1_655  S
C798        O802   1.259       .  A
C798       C1122   1.433       .  S
C803        C804   1.529       .  S
C803        C809   1.532       .  S
C803        C807   1.539       .  S
C803       C1110   1.471       .  S
C804        H811   1.087       .  S
C804        C805   1.360       .  D
C805        C806   1.542       .  S
C805       C1111   1.439       .  S
C806        C810   1.542       .  S
C806        C808   1.546       .  S
C806        H812   1.111       .  S
C807        H813   1.086       .  S
C807        C808   1.369       .  D
C808       C1108   1.457       .  S
C809        H814   1.087       .  S
C809        C810   1.365       .  D
C810       C1105   1.448       .  S
C815        C816   1.538       .  S
C815        C821   1.532       .  S
C815        C819   1.529       .  S
C815       C1109   1.471       .  S
C816        H823   1.086       .  S
C816        C817   1.369       .  D
C817        C818   1.547       .  S
C817       C1103   1.457       .  S
C818        C822   1.543       .  S
C818        C820   1.543       .  S
C818        H824   1.111       .  S
C819        H825   1.087       .  S
C819        C820   1.360       .  D
C820       C1128   1.440       .  S
C821        H826   1.087       .  S
C821        C822   1.364       .  D
C822       C1101   1.449       .  S
O827        C830   1.264       .  A
O827       Cd832   2.409       .  S
C828        O837   1.269       .  A
C828        O833   1.259       .  A
C828        C904   1.454       .  S
O829        C835   1.269       .  A
O829       Cd832   2.503       .  S
C830        O838   1.266       .  A
C831        O836   1.269       .  A
C831        O834   1.259       .  A
C831       C1098   1.431       .  S
Cd832       O839   2.405       .  S
Cd832       O838   2.417       .  S
Cd832       O837   2.514       .  S
Cd832       O833   2.348       .  S
Cd832       O836   2.493       .  S
Cd832       O834   2.406       .  S
C835        O839   1.259       .  A
C835       C1099   1.432       .  S
C840        C841   1.539       .  S
C840        C846   1.531       .  S
C840        C844   1.531       .  S
C840       C1095   1.472       .  S
C841        H848   1.086       .  S
C841        C842   1.368       .  D
C842        C843   1.545       .  S
C842       C1119   1.455       .  S
C843        C847   1.542       .  S
C843        C845   1.542       .  S
C843        H849   1.111       .  S
C844        H850   1.086       .  S
C844        C845   1.361       .  D
C845       C1093   1.442       .  S
C846        H851   1.087       .  S
C846        C847   1.364       .  D
C847       C1091   1.447       .  S
C852        C853   1.530       .  S
C852        C858   1.532       .  S
C852        C856   1.539       .  S
C852       C1096   1.472       .  S
C853        H860   1.087       .  S
C853        C854   1.361       .  D
C854        C855   1.542       .  S
C854       C1100   1.440       .  S
C855        C859   1.542       .  S
C855        C857   1.546       .  S
C855        H861   1.111       .  S
C856        H862   1.086       .  S
C856        C857   1.368       .  D
C857       C1116   1.457       .  S
C858        H863   1.087       .  S
C858        C859   1.364       .  D
C859       C1089   1.448       .  S
O864        C867   1.265   1_655  A
O864       Cd869   2.407       .  S
C865        O874   1.268       .  A
C865        O870   1.260       .  A
C865        C941   1.456       .  S
O866        C872   1.269       .  A
O866       Cd869   2.496   1_455  S
C867        O875   1.266       .  A
C868        O873   1.270       .  A
C868        O871   1.259       .  A
C868       C1094   1.434       .  S
Cd869       O876   2.406   1_655  S
Cd869       O875   2.412   1_655  S
Cd869       O874   2.517       .  S
Cd869       O870   2.360       .  S
Cd869       O873   2.505       .  S
Cd869       O871   2.411       .  S
C872        O876   1.259       .  A
C872       C1087   1.431       .  S
C877        C878   1.539       .  S
C877        C883   1.533       .  S
C877        C881   1.528       .  S
C877       C1085   1.471       .  S
C878        H885   1.086       .  S
C878        C879   1.369       .  D
C879        C880   1.545       .  S
C879       C1104   1.457       .  S
C880        C884   1.542       .  S
C880        C882   1.542       .  S
C880        H886   1.111       .  S
C881        H887   1.087       .  S
C881        C882   1.359       .  D
C882       C1097   1.438       .  S
C883        H888   1.087       .  S
C883        C884   1.365       .  D
C884       C1083   1.448       .  S
C889        C890   1.528       .  S
C889        C895   1.532       .  S
C889        C893   1.539       .  S
C889       C1086   1.472       .  S
C890        H897   1.087       .  S
C890        C891   1.359       .  D
C891        C892   1.542       .  S
C891       C1088   1.439       .  S
C892        C896   1.542       .  S
C892        C894   1.546       .  S
C892        H898   1.111       .  S
C893        H899   1.086       .  S
C893        C894   1.369       .  D
C894       C1107   1.457       .  S
C895        H900   1.087       .  S
C895        C896   1.365       .  D
C896       C1082   1.448       .  S
O901        C904   1.260       .  A
O901       Cd906   2.349       .  S
C902        O911   1.265       .  A
C902       O1283   1.264       .  A
O903        C909   1.270   1_556  A
O903       Cd906   2.500   1_556  S
C904        O912   1.269       .  A
C905        O910   1.269   1_554  A
C905        O908   1.260       .  A
C905       C1079   1.432   1_554  S
Cd906       O913   2.408       .  S
Cd906       O912   2.512       .  S
Cd906      O1287   2.410   1_554  S
Cd906       O907   2.411       .  S
Cd906       O910   2.494   1_554  S
Cd906       O908   2.411       .  S
O907       C1278   1.264       .  A
C909        O913   1.259       .  A
C909       C1078   1.433   1_554  S
O911      Cd1282   2.408       .  S
C914        C915   1.530       .  S
C914        C920   1.532       .  S
C914        C918   1.539       .  S
C914       C1075   1.472       .  S
C915       H1298   1.087   1_554  S
C915        C916   1.360       .  D
C916        C917   1.542       .  S
C916       C1074   1.440       .  S
C917        C921   1.542       .  S
C917        C919   1.546       .  S
C917        H923   1.111       .  S
C918       H1300   1.086   1_554  S
C918        C919   1.369       .  D
C919       C1072   1.457       .  S
C920        H925   1.087       .  S
C920        C921   1.364       .  D
C921       C1092   1.447       .  S
H922       C1291   1.087       .  S
H924       C1294   1.086       .  S
C926        C927   1.539       .  S
C926        C932   1.532       .  S
C926        C930   1.529       .  S
C926       C1076   1.471       .  S
C927       H1310   1.086       .  S
C927        C928   1.368       .  D
C928        C929   1.546       .  S
C928       C1069   1.456       .  S
C929        C933   1.542       .  S
C929        C931   1.543       .  S
C929        H935   1.111       .  S
C930       H1312   1.087       .  S
C930        C931   1.360       .  D
C931       C1077   1.440       .  S
C932        H937   1.087       .  S
C932        C933   1.364       .  D
C933       C1090   1.448       .  S
H934       C1303   1.086   1_554  S
H936       C1306   1.087   1_554  S
O938        C941   1.259       .  A
O938       Cd943   2.358       .  S
C939       O1324   1.266       .  A
C939        O944   1.264       .  A
C939       C1013   1.447       .  S
O940        C946   1.270       .  A
O940       Cd943   2.507   1_455  S
C941        O949   1.269       .  A
C942        O947   1.269       .  A
C942        O945   1.259       .  A
C942       C1073   1.431       .  S
Cd943       O950   2.404   1_655  S
Cd943       O949   2.518       .  S
Cd943      O1324   2.423       .  S
Cd943       O944   2.407       .  S
Cd943       O947   2.500       .  S
Cd943       O945   2.406       .  S
C946        O950   1.258       .  A
C946       C1067   1.432       .  S
O948       C1315   1.266   1_554  A
O948      Cd1319   2.418   1_554  S
C951       C1328   1.540   1_554  S
C951        C957   1.531       .  S
C951        C955   1.529       .  S
C951       C1066   1.472       .  S
C952       C1327   1.540       .  S
C952        H959   1.086       .  S
C952       C1329   1.369       .  D
C953        C954   1.546       .  S
C953       C1328   1.369   1_554  D
C953       C1063   1.458       .  S
C954        C958   1.542       .  S
C954        C956   1.542       .  S
C954        H960   1.111       .  S
C955       H1337   1.087   1_554  S
C955        C956   1.360       .  D
C956       C1068   1.440       .  S
C957        H962   1.087       .  S
C957        C958   1.364       .  D
C958       C1081   1.448       .  S
H961       C1331   1.087       .  S
C963        C964   1.529       .  S
C963        C969   1.532       .  S
C963        C967   1.539       .  S
C963       C1065   1.472       .  S
C964       H1347   1.087       .  S
C964        C965   1.360       .  D
C965        C966   1.542       .  S
C965       C1080   1.440       .  S
C966        C970   1.543       .  S
C966        C968   1.546       .  S
C966        H972   1.111       .  S
C967       H1349   1.086       .  S
C967        C968   1.369       .  D
C968       C1061   1.457       .  S
C969        H974   1.087       .  S
C969        C970   1.364       .  D
C970       C1084   1.448       .  S
H971       C1340   1.087   1_554  S
H973       C1343   1.086   1_554  S
O975        C978   1.260       .  A
O975       Cd980   2.360       .  S
C976       O1361   1.266       .  A
C976        O981   1.265       .  A
O977        C983   1.270       .  A
O977       Cd980   2.503       .  S
C978        O986   1.268       .  A
C979        O984   1.269       .  A
C979        O982   1.260       .  A
C979       C1059   1.432       .  S
Cd980       O987   2.404       .  S
Cd980       O986   2.509       .  S
Cd980      O1361   2.409       .  S
Cd980       O981   2.405       .  S
Cd980       O984   2.495       .  S
Cd980       O982   2.409       .  S
C983        O987   1.258       .  A
C983       C1057   1.432       .  S
O985       C1352   1.266   1_554  A
O985      Cd1356   2.411   1_554  S
C988        C989   1.529       .  S
C988        C994   1.532       .  S
C988        C992   1.539       .  S
C988       C1055   1.472       .  S
C989       H1372   1.087       .  S
C989        C990   1.360       .  D
C990        C991   1.542       .  S
C990       C1053   1.439       .  S
C991        C995   1.542       .  S
C991        C993   1.546       .  S
C991        H997   1.111       .  S
C992       H1374   1.086       .  S
C992        C993   1.369       .  D
C993       C1071   1.457       .  S
C994        H999   1.087       .  S
C994        C995   1.364       .  D
C995       C1118   1.448       .  S
H996       C1365   1.087   1_554  S
H998       C1368   1.086   1_554  S
C1000      C1377   1.539       .  S
C1000      C1006   1.532       .  S
C1000      C1004   1.529       .  S
C1000      C1056   1.472       .  S
C1001      C1376   1.539       .  S
C1001      H1008   1.086       .  S
C1001      C1378   1.369       .  D
C1002      C1003   1.545       .  S
C1002      C1377   1.369       .  D
C1002      C1070   1.457       .  S
C1003      C1007   1.542       .  S
C1003      C1005   1.542       .  S
C1003      H1009   1.111       .  S
C1004      H1386   1.087   1_554  S
C1004      C1005   1.360       .  D
C1005      C1058   1.440       .  S
C1006      H1011   1.087       .  S
C1006      C1007   1.364       .  D
C1007      C1114   1.448       .  S
H1010      C1380   1.087       .  S
O1012      C1015   1.260   1_455  A
O1012     Cd1017   2.356   1_455  S
C1013      O1022   1.265       .  A
C1013      O1394   1.264       .  A
O1014      C1020   1.270       .  A
O1014     Cd1017   2.502   1_455  S
C1015      O1023   1.269       .  A
C1016      O1021   1.268   1_554  A
C1016      O1019   1.259       .  A
C1016      C1054   1.431   1_554  S
Cd1017     O1024   2.400   1_655  S
Cd1017     O1023   2.510       .  S
Cd1017     O1398   2.417   1_554  S
Cd1017     O1018   2.415       .  S
Cd1017     O1021   2.491   1_554  S
Cd1017     O1019   2.410       .  S
O1018      C1389   1.264       .  A
C1020      O1024   1.259       .  A
C1020      C1051   1.431   1_554  S
O1022     Cd1393   2.417       .  S
C1025      C1026   1.529       .  S
C1025      C1031   1.532       .  S
C1025      C1029   1.538       .  S
C1025      C1050   1.471       .  S
C1026      H1409   1.087   1_554  S
C1026      C1027   1.360       .  D
C1027      C1028   1.542       .  S
C1027      C1060   1.440       .  S
C1028      C1032   1.542       .  S
C1028      C1030   1.546       .  S
C1028      H1034   1.111       .  S
C1029      H1411   1.086   1_554  S
C1029      C1030   1.368       .  D
C1030      C1062   1.457       .  S
C1031      H1036   1.087       .  S
C1031      C1032   1.365       .  D
C1032      C1102   1.449       .  S
H1033      C1402   1.087       .  S
H1035      C1405   1.086       .  S
C1037      C1038   1.539       .  S
C1037      C1043   1.532       .  S
C1037      C1041   1.529       .  S
C1037      C1049   1.472       .  S
C1038      H1421   1.086       .  S
C1038      C1039   1.369       .  D
C1039      C1040   1.546       .  S
C1039      C1064   1.457       .  S
C1040      C1044   1.543       .  S
C1040      C1042   1.543       .  S
C1040      H1046   1.111       .  S
C1041      H1423   1.087       .  S
C1041      C1042   1.360       .  D
C1042      C1052   1.440       .  S
C1043      H1048   1.087       .  S
C1043      C1044   1.364       .  D
C1044      C1106   1.448       .  S
H1045      C1414   1.086   1_554  S
H1047      C1417   1.087   1_554  S
C1049      C1426   1.208       .  T
C1050      C1425   1.208   1_554  T
C1051      C1428   1.204       .  T
C1052      C1427   1.205       .  T
C1053      C1430   1.204       .  T
C1054      C1429   1.204       .  T
C1055      C1432   1.208       .  T
C1056      C1431   1.209   1_554  T
C1057      C1434   1.205       .  T
C1058      C1433   1.205       .  T
C1059      C1436   1.205       .  T
C1060      C1435   1.205       .  T
C1063      C1440   1.215   1_554  T
C1064      C1439   1.215       .  T
C1065      C1442   1.209       .  T
C1066      C1441   1.209   1_554  T
C1067      C1444   1.205       .  T
C1068      C1443   1.205       .  T
C1071      C1448   1.215       .  T
C1072      C1447   1.215   1_554  T
C1073      C1450   1.204       .  T
C1074      C1449   1.205       .  T
C1075      C1452   1.208   1_554  T
C1076      C1451   1.208       .  T
C1077      C1454   1.205       .  T
C1078      C1453   1.205       .  T
C1079      C1456   1.205       .  T
C1080      C1455   1.205       .  T
C1081      C1082   1.210       .  T
C1083      C1084   1.210       .  T
C1085      C1086   1.208       .  T
C1087      C1088   1.204       .  T
C1089      C1090   1.210       .  T
C1091      C1092   1.209       .  T
C1093      C1094   1.206       .  T
C1095      C1096   1.208       .  T
C1097      C1098   1.204       .  T
C1099      C1100   1.205       .  T
C1101      C1102   1.210       .  T
C1105      C1106   1.210       .  T
C1107      C1108   1.215       .  T
C1109      C1110   1.208       .  T
C1111      C1112   1.204       .  T
C1113      C1114   1.210       .  T
C1117      C1118   1.210       .  T
C1119      C1120   1.214       .  T
C1121      C1122   1.205       .  T
C1123      C1124   1.209       .  T
C1125      C1126   1.205       .  T
C1127      C1128   1.205       .  T
O1129      C1132   1.260       .  A
O1129     Cd1134   2.361       .  S
C1130      O1139   1.266       .  A
C1130      O1135   1.264       .  A
O1131      C1137   1.269       .  A
O1131     Cd1134   2.498       .  S
C1132      O1140   1.269       .  A
C1132      C1354   1.455       .  S
C1133      O1138   1.270       .  A
C1133      O1136   1.258       .  A
C1133      C1501   1.432       .  S
Cd1134     O1141   2.415       .  S
Cd1134     O1140   2.509       .  S
Cd1134     O1139   2.409       .  S
Cd1134     O1135   2.411       .  S
Cd1134     O1138   2.507       .  S
Cd1134     O1136   2.403       .  S
C1137      O1141   1.260       .  A
C1137      C1503   1.433       .  S
C1142      C1143   1.539       .  S
C1142      C1148   1.532       .  S
C1142      C1146   1.530       .  S
C1142      C1499   1.472       .  S
C1143      H1150   1.086       .  S
C1143      C1144   1.368       .  D
C1144      C1145   1.545       .  S
C1144      C1496   1.455       .  S
C1145      C1149   1.542       .  S
C1145      C1147   1.542       .  S
C1145      H1151   1.111       .  S
C1146      H1152   1.087       .  S
C1146      C1147   1.361       .  D
C1147      C1497   1.440       .  S
C1148      H1153   1.087       .  S
C1148      C1149   1.365       .  D
C1149      C1493   1.448       .  S
C1154      C1155   1.530       .  S
C1154      C1160   1.532       .  S
C1154      C1158   1.538       .  S
C1154      C1500   1.472       .  S
C1155      H1162   1.087       .  S
C1155      C1156   1.360       .  D
C1156      C1157   1.542       .  S
C1156      C1502   1.440       .  S
C1157      C1161   1.542       .  S
C1157      C1159   1.546       .  S
C1157      H1163   1.111       .  S
C1158      H1164   1.086       .  S
C1158      C1159   1.368       .  D
C1159      C1491   1.456       .  S
C1160      H1165   1.087       .  S
C1160      C1161   1.364       .  D
C1161      C1489   1.448       .  S
O1166      C1169   1.260       .  A
O1166     Cd1171   2.360   1_455  S
C1167      O1176   1.266       .  A
C1167      O1172   1.265   1_655  A
C1167      C1243   1.445       .  S
O1168      C1174   1.268       .  A
O1168     Cd1171   2.496       .  S
C1169      O1177   1.268   1_455  A
C1169      C1391   1.455       .  S
C1170      O1175   1.270       .  A
C1170      O1173   1.258       .  A
C1170      C1488   1.431       .  S
Cd1171     O1178   2.414       .  S
Cd1171     O1177   2.514       .  S
Cd1171     O1176   2.407       .  S
Cd1171     O1172   2.416   1_655  S
Cd1171     O1175   2.503   1_655  S
Cd1171     O1173   2.399   1_655  S
C1174      O1178   1.259       .  A
C1174      C1498   1.433       .  S
C1179      C1180   1.529       .  S
C1179      C1185   1.532       .  S
C1179      C1183   1.539       .  S
C1179      C1486   1.472       .  S
C1180      H1187   1.087       .  S
C1180      C1181   1.360       .  D
C1181      C1182   1.543       .  S
C1181      C1487   1.439       .  S
C1182      C1186   1.542       .  S
C1182      C1184   1.546       .  S
C1182      H1188   1.111       .  S
C1183      H1189   1.086       .  S
C1183      C1184   1.369       .  D
C1184      C1484   1.458       .  S
C1185      H1190   1.087       .  S
C1185      C1186   1.365       .  D
C1186      C1481   1.448       .  S
C1191      C1192   1.538       .  S
C1191      C1197   1.532       .  S
C1191      C1195   1.530       .  S
C1191      C1485   1.472       .  S
C1192      H1199   1.086       .  S
C1192      C1193   1.368       .  D
C1193      C1194   1.547       .  S
C1193      C1479   1.457       .  S
C1194      C1198   1.543       .  S
C1194      C1196   1.542       .  S
C1194      H1200   1.111       .  S
C1195      H1201   1.087       .  S
C1195      C1196   1.361       .  D
C1196      C1504   1.441       .  S
C1197      H1202   1.087       .  S
C1197      C1198   1.364       .  D
C1198      C1477   1.448       .  S
O1203      C1206   1.264       .  A
O1203     Cd1208   2.403       .  S
C1204      O1213   1.269       .  A
C1204      O1209   1.259       .  A
C1204      C1280   1.453       .  S
O1205      C1211   1.269       .  A
O1205     Cd1208   2.499       .  S
C1206      O1214   1.266       .  A
C1207      O1212   1.269       .  A
C1207      O1210   1.259       .  A
C1207      C1474   1.430       .  S
Cd1208     O1215   2.405       .  S
Cd1208     O1214   2.416       .  S
Cd1208     O1213   2.514       .  S
Cd1208     O1209   2.348       .  S
Cd1208     O1212   2.495       .  S
Cd1208     O1210   2.402       .  S
C1211      O1215   1.259       .  A
C1211      C1475   1.432       .  S
C1216      C1217   1.538       .  S
C1216      C1222   1.532       .  S
C1216      C1220   1.531       .  S
C1216      C1471   1.472       .  S
C1217      H1224   1.086       .  S
C1217      C1218   1.368       .  D
C1218      C1219   1.545       .  S
C1218      C1495   1.455       .  S
C1219      C1223   1.542       .  S
C1219      C1221   1.542       .  S
C1219      H1225   1.111       .  S
C1220      H1226   1.086       .  S
C1220      C1221   1.361       .  D
C1221      C1469   1.442       .  S
C1222      H1227   1.087       .  S
C1222      C1223   1.364       .  D
C1223      C1467   1.447       .  S
C1228      C1229   1.530       .  S
C1228      C1234   1.532       .  S
C1228      C1232   1.538       .  S
C1228      C1472   1.472       .  S
C1229      H1236   1.087       .  S
C1229      C1230   1.361       .  D
C1230      C1231   1.542       .  S
C1230      C1476   1.440       .  S
C1231      C1235   1.542       .  S
C1231      C1233   1.545       .  S
C1231      H1237   1.111       .  S
C1232      H1238   1.086       .  S
C1232      C1233   1.368       .  D
C1233      C1492   1.456       .  S
C1234      H1239   1.087       .  S
C1234      C1235   1.364       .  D
C1235      C1465   1.448       .  S
O1240      C1243   1.265       .  A
O1240     Cd1245   2.402       .  S
C1241      O1250   1.268       .  A
C1241      O1246   1.260       .  A
C1241      C1317   1.457       .  S
O1242      C1248   1.270       .  A
O1242     Cd1245   2.499   1_455  S
C1243      O1251   1.266   1_655  A
C1244      O1249   1.270       .  A
C1244      O1247   1.259       .  A
C1244      C1470   1.434       .  S
Cd1245     O1252   2.402   1_655  S
Cd1245     O1251   2.418   1_655  S
Cd1245     O1250   2.517       .  S
Cd1245     O1246   2.362       .  S
Cd1245     O1249   2.505       .  S
Cd1245     O1247   2.409       .  S
C1248      O1252   1.259       .  A
C1248      C1463   1.431       .  S
C1253      C1254   1.539       .  S
C1253      C1259   1.533       .  S
C1253      C1257   1.528       .  S
C1253      C1461   1.472       .  S
C1254      H1261   1.086       .  S
C1254      C1255   1.369       .  D
C1255      C1256   1.546       .  S
C1255      C1480   1.457       .  S
C1256      C1260   1.542       .  S
C1256      C1258   1.542       .  S
C1256      H1262   1.111       .  S
C1257      H1263   1.087       .  S
C1257      C1258   1.359       .  D
C1258      C1473   1.438       .  S
C1259      H1264   1.087       .  S
C1259      C1260   1.365       .  D
C1260      C1459   1.449       .  S
C1265      C1266   1.528       .  S
C1265      C1271   1.532       .  S
C1265      C1269   1.539       .  S
C1265      C1462   1.472       .  S
C1266      H1273   1.087       .  S
C1266      C1267   1.359       .  D
C1267      C1268   1.542       .  S
C1267      C1464   1.439       .  S
C1268      C1272   1.542       .  S
C1268      C1270   1.546       .  S
C1268      H1274   1.111       .  S
C1269      H1275   1.086       .  S
C1269      C1270   1.369       .  D
C1270      C1483   1.458       .  S
C1271      H1276   1.087       .  S
C1271      C1272   1.364       .  D
C1272      C1458   1.448       .  S
O1277      C1280   1.260       .  A
O1277     Cd1282   2.349       .  S
C1278      O1287   1.265   1_554  A
O1279      C1285   1.270       .  A
O1279     Cd1282   2.499       .  S
C1280      O1288   1.269       .  A
C1281      O1286   1.269       .  A
C1281      O1284   1.260       .  A
C1281      C1455   1.432       .  S
Cd1282     O1289   2.405       .  S
Cd1282     O1288   2.510       .  S
Cd1282     O1283   2.413       .  S
Cd1282     O1286   2.490       .  S
Cd1282     O1284   2.411       .  S
C1285      O1289   1.259       .  A
C1285      C1454   1.432       .  S
C1290      C1291   1.529       .  S
C1290      C1296   1.532       .  S
C1290      C1294   1.539       .  S
C1290      C1451   1.471       .  S
C1291      C1292   1.360       .  D
C1292      C1293   1.542       .  S
C1292      C1450   1.440       .  S
C1293      C1297   1.542       .  S
C1293      C1295   1.546       .  S
C1293      H1299   1.111       .  S
C1294      C1295   1.369       .  D
C1295      C1448   1.457       .  S
C1296      H1301   1.087       .  S
C1296      C1297   1.364       .  D
C1297      C1468   1.447       .  S
C1302      C1303   1.539       .  S
C1302      C1308   1.532       .  S
C1302      C1306   1.530       .  S
C1302      C1452   1.472       .  S
C1303      C1304   1.369       .  D
C1304      C1305   1.545       .  S
C1304      C1445   1.456       .  S
C1305      C1309   1.542       .  S
C1305      C1307   1.543       .  S
C1305      H1311   1.111       .  S
C1306      C1307   1.361       .  D
C1307      C1453   1.441       .  S
C1308      H1313   1.087       .  S
C1308      C1309   1.364       .  D
C1309      C1466   1.448       .  S
O1314      C1317   1.259       .  A
O1314     Cd1319   2.361       .  S
C1315      O1320   1.265       .  A
C1315      C1389   1.446   1_556  S
O1316      C1322   1.270       .  A
O1316     Cd1319   2.506   1_455  S
C1317      O1325   1.268       .  A
C1318      O1323   1.269   1_556  A
C1318      O1321   1.259       .  A
C1318      C1449   1.432   1_556  S
Cd1319     O1326   2.404   1_655  S
Cd1319     O1325   2.519       .  S
Cd1319     O1320   2.408       .  S
Cd1319     O1323   2.502   1_556  S
Cd1319     O1321   2.407       .  S
C1322      O1326   1.258       .  A
C1322      C1443   1.432   1_556  S
C1327      C1333   1.532       .  S
C1327      C1331   1.529       .  S
C1327      C1442   1.472       .  S
C1328      H1335   1.086       .  S
C1329      C1330   1.545       .  S
C1329      C1439   1.457       .  S
C1330      C1334   1.542       .  S
C1330      C1332   1.542       .  S
C1330      H1336   1.111       .  S
C1331      C1332   1.360       .  D
C1332      C1444   1.440       .  S
C1333      H1338   1.087       .  S
C1333      C1334   1.364       .  D
C1334      C1457   1.448       .  S
C1339      C1340   1.529       .  S
C1339      C1345   1.531       .  S
C1339      C1343   1.539       .  S
C1339      C1441   1.472       .  S
C1340      C1341   1.360       .  D
C1341      C1342   1.542       .  S
C1341      C1456   1.440       .  S
C1342      C1346   1.543       .  S
C1342      C1344   1.546       .  S
C1342      H1348   1.111       .  S
C1343      C1344   1.369       .  D
C1344      C1437   1.458       .  S
C1345      H1350   1.087       .  S
C1345      C1346   1.364       .  D
C1346      C1460   1.448       .  S
O1351      C1354   1.260       .  A
O1351     Cd1356   2.362       .  S
C1352      O1357   1.265       .  A
O1353      C1359   1.270       .  A
O1353     Cd1356   2.503       .  S
C1354      O1362   1.268       .  A
C1355      O1360   1.269   1_556  A
C1355      O1358   1.260       .  A
C1355      C1435   1.432   1_556  S
Cd1356     O1363   2.402       .  S
Cd1356     O1362   2.509       .  S
Cd1356     O1357   2.406       .  S
Cd1356     O1360   2.494   1_556  S
Cd1356     O1358   2.410       .  S
C1359      O1363   1.258       .  A
C1359      C1433   1.432   1_556  S
C1364      C1365   1.529       .  S
C1364      C1370   1.532       .  S
C1364      C1368   1.539       .  S
C1364      C1431   1.472       .  S
C1365      C1366   1.360       .  D
C1366      C1367   1.542       .  S
C1366      C1429   1.439       .  S
C1367      C1371   1.542       .  S
C1367      C1369   1.546       .  S
C1367      H1373   1.111       .  S
C1368      C1369   1.369       .  D
C1369      C1447   1.457       .  S
C1370      H1375   1.087       .  S
C1370      C1371   1.364       .  D
C1371      C1494   1.448       .  S
C1376      C1382   1.532       .  S
C1376      C1380   1.530       .  S
C1376      C1432   1.472       .  S
C1377      H1384   1.086   1_554  S
C1378      C1379   1.545       .  S
C1378      C1446   1.456       .  S
C1379      C1383   1.542       .  S
C1379      C1381   1.542       .  S
C1379      H1385   1.111       .  S
C1380      C1381   1.360       .  D
C1381      C1434   1.440       .  S
C1382      H1387   1.087       .  S
C1382      C1383   1.364       .  D
C1383      C1490   1.448       .  S
O1388      C1391   1.261       .  A
O1388     Cd1393   2.356   1_455  S
C1389      O1398   1.265   1_554  A
O1390      C1396   1.270       .  A
O1390     Cd1393   2.504   1_455  S
C1391      O1399   1.269   1_455  A
C1392      O1397   1.267       .  A
C1392      O1395   1.260       .  A
C1392      C1430   1.431       .  S
Cd1393     O1400   2.400   1_655  S
Cd1393     O1399   2.509       .  S
Cd1393     O1394   2.420       .  S
Cd1393     O1397   2.490       .  S
Cd1393     O1395   2.414       .  S
C1396      O1400   1.258       .  A
C1396      C1427   1.432       .  S
C1401      C1402   1.529       .  S
C1401      C1407   1.532       .  S
C1401      C1405   1.539       .  S
C1401      C1426   1.472       .  S
C1402      C1403   1.360       .  D
C1403      C1404   1.542       .  S
C1403      C1436   1.440       .  S
C1404      C1408   1.542       .  S
C1404      C1406   1.545       .  S
C1404      H1410   1.111       .  S
C1405      C1406   1.368       .  D
C1406      C1438   1.457       .  S
C1407      H1412   1.087       .  S
C1407      C1408   1.365       .  D
C1408      C1478   1.449       .  S
C1413      C1414   1.538       .  S
C1413      C1419   1.532       .  S
C1413      C1417   1.529       .  S
C1413      C1425   1.471       .  S
C1414      C1415   1.368       .  D
C1415      C1416   1.546       .  S
C1415      C1440   1.458       .  S
C1416      C1420   1.543       .  S
C1416      C1418   1.543       .  S
C1416      H1422   1.111       .  S
C1417      C1418   1.360       .  D
C1418      C1428   1.439       .  S
C1419      H1424   1.087       .  S
C1419      C1420   1.364       .  D
C1420      C1482   1.448       .  S
C1457      C1458   1.210       .  T
C1459      C1460   1.210       .  T
C1461      C1462   1.208       .  T
C1463      C1464   1.204       .  T
C1465      C1466   1.210       .  T
C1467      C1468   1.209       .  T
C1469      C1470   1.206       .  T
C1471      C1472   1.208       .  T
C1473      C1474   1.204       .  T
C1475      C1476   1.204       .  T
C1477      C1478   1.210       .  T
C1481      C1482   1.210       .  T
C1483      C1484   1.216       .  T
C1485      C1486   1.208       .  T
C1487      C1488   1.204       .  T
C1489      C1490   1.210       .  T
C1493      C1494   1.210       .  T
C1495      C1496   1.214       .  T
C1497      C1498   1.205       .  T
C1499      C1500   1.209       .  T
C1501      C1502   1.205       .  T
C1503      C1504   1.205       .  T
