geometry optimzed in LAMMPS
_audit_creation_date              2020-11-30 
_audit_creation_method            'lammps2cif' 
_symmetry_space_group_name_H-M    'P1' 
_symmetry_Int_Tables_number       1 
_symmetry_cell_setting            triclinic 
loop_ 
_symmetry_equiv_pos_as_xyz 
  x,y,z 
_cell_length_a                    32.84933879 
_cell_length_b                    32.269912083960264 
_cell_length_c                    41.75405025693554 
_cell_angle_alpha                 91.41413159682556 
_cell_angle_beta                  88.70018413931908 
_cell_angle_gamma                 90.44191181102205 
loop_ 
_atom_site_label 
_atom_site_type_symbol 
_atom_site_fract_x 
_atom_site_fract_y 
_atom_site_fract_z 
_atom_site_charge 
C1          C  0.34268751  0.02199935  0.01385888    -0.11100
C2          C  0.35065265  0.48597950  0.50248833    -0.05000
C3          C  0.33068959  0.44560050  0.50611532    -0.11100
C4          C  0.28852221  0.44718690  0.51184712     0.09900
C5          C  0.26756147  0.48594889  0.51418903    -0.02900
C6          C  0.30015278  0.02305615  0.02028706     0.09700
C7          C  0.28025118  0.06133014  0.02351390    -0.12900
C8          C  0.23813273  0.06390006  0.02165236    -0.12900
C9          C  0.21411519  0.02826536  0.01686102     0.09700
C10         C  0.23277863  0.98826842  0.01884140    -0.02900
C11         C  0.26627594  0.41001883  0.51239204    -0.13000
C12         C  0.22459776  0.40993449  0.51011415    -0.13000
C13         C  0.20296029  0.44700934  0.50929409     0.09900
C14         C  0.16145045  0.44550135  0.50194102    -0.11100
C15         C  0.15280939  0.99216762  0.99997920    -0.05000
C16         C  0.17327464  0.03207647  0.00717314    -0.11100
H17         H  0.29736591  0.09006219  0.02544196     0.07100
H18         H  0.22473140  0.09446608  0.02217319     0.07100
H19         H  0.28097179  0.38011748  0.51237522     0.07300
H20         H  0.20961177  0.38004676  0.50795136     0.07300
H21         H  0.38100874  0.48634529  0.49356929     0.03700
H22         H  0.12501547  0.99160143  0.98714807     0.03700
C23         C  0.40187689  0.39594724  0.45510481     0.86200
C24         C  0.35735936  0.39887794  0.46486415    -0.54000
C25         C  0.35134102  0.40206162  0.49664293     0.09200
C26         C  0.39272314  0.37056849  0.00876527     0.20100
C27         C  0.42435174  0.42721103  0.48062092    -0.54700
C28         C  0.41960455  0.40602862  0.01103622     0.09300
C29         C  0.41695794  0.35373624  0.46430663    -0.54200
C30         C  0.41893452  0.34836501  0.49593011     0.09800
H31         H  0.33601451  0.41270602  0.44874128     0.14400
H32         H  0.38200579  0.35442241  0.03053856     0.00100
H33         H  0.44254892  0.45357266  0.47407171     0.14700
H34         H  0.43477521  0.33462970  0.44747981     0.14500
O35         O  0.42361382  0.39957372  0.29084550    -0.75500
O36         O  0.42806497  0.46174117  0.31405863    -0.54400
C37         C  0.42187160  0.42360114  0.31646248     0.78200
O38         O  0.07141689  0.42350489  0.17220761    -0.60100
O39         O  0.05711726  0.48625095  0.15525708    -0.53200
C40         C  0.06809971  0.44983582  0.14950015     0.70200
O41         O  0.07387837  0.41899242  0.28793334    -0.74700
O42         O  0.01970602  0.44383547  0.31692554    -0.55300
C43         C  0.05375226  0.42516183  0.31465739     0.76200
O44         O  0.42959054  0.40875141  0.17147763    -0.59800
O45         O  0.48193538  0.44293992  0.14734887    -0.53000
C46         C  0.45147058  0.41859667  0.14605203     0.72800
Zr47       Zr  0.43535086  0.42154103  0.23226773     2.55100
O48         O  0.42906032  0.34633261  0.22921401    -0.80400
O49         O  0.36145609  0.41840652  0.22871002    -0.93800
Zr50       Zr  0.05716007  0.43433792  0.23130229     2.64700
O51         O  0.05554979  0.35887630  0.22972134    -0.98800
O52         O  0.13110404  0.43130437  0.22702209    -0.80800
O53         O  0.99365542  0.43620491  0.25529776    -0.84200
O54         O  0.99720075  0.43352588  0.20157571    -2.18900
O55         O  0.42008731  0.06155401  0.18187999    -0.67600
O56         O  0.43789787  0.00012871  0.16107206    -0.52100
C57         C  0.42365162  0.03567304  0.15785657     0.71200
O58         O  0.08755110  0.05800302  0.30223392    -0.60500
O59         O  0.04833236  0.00795536  0.32396888    -0.52500
C60         C  0.07505823  0.03612333  0.32637502     0.73000
O61         O  0.11113028  0.06096211  0.18809122    -0.71900
O62         O  0.05779436  0.05523177  0.15553690    -0.50600
C63         C  0.09518033  0.06256701  0.15999778     0.74400
O64         O  0.41551763  0.06174583  0.29868257    -0.67200
O65         O  0.47553791  0.04601554  0.31894885    -0.54400
C66         C  0.43991169  0.06012913  0.32252263     0.72800
Zr67       Zr  0.43178347  0.04883111  0.24005372     2.77500
O68         O  0.42620109  0.12405341  0.24012565    -0.98000
O69         O  0.35783406  0.05343426  0.24070371    -0.78800
Zr70       Zr  0.07674978  0.05200758  0.24252538     2.70100
O71         O  0.09073430  0.12615144  0.24542478    -0.80000
O72         O  0.14875292  0.04128414  0.25192662    -0.99100
Zr73       Zr  0.98868318  0.49485238  0.28567223     2.21500
Zr74       Zr  0.99675369  0.50251145  0.18261277     2.11100
O75         O  0.01816452  0.06934286  0.21284153    -2.47800
O76         O  0.01029496  0.05380557  0.26189598    -0.79800
O77         O  0.44005118  0.48767375  0.21318689    -0.72000
O78         O  0.05599409  0.49534612  0.26356264    -2.33000
O79         O  0.42560662  0.48432522  0.26285298    -2.29200
O80         O  0.05303514  0.49965510  0.21206728    -0.73800
H81         H  0.99942759  0.41131485  0.18616834     0.78200
H82         H  0.07794727  0.49296496  0.27838535     0.79300
H83         H  0.02355707  0.09423788  0.20107331     0.81500
H84         H  0.39845936  0.48479673  0.27232703     0.79100
H85         H  0.14022163  0.46026049  0.23095524     0.42200
H86         H  0.15383415  0.01240048  0.24441835     0.41100
H87         H  0.07045221  0.13721096  0.26124611     0.40800
H88         H  0.40160994  0.12925246  0.22756993     0.38800
H89         H  0.34895799  0.03097975  0.22581166     0.41900
H90         H  0.35119989  0.43706560  0.24620130     0.36700
H91         H  0.45730946  0.33648601  0.22568110     0.42800
H92         H  0.04363594  0.35117085  0.25076649     0.39200
H93         H  0.41818417  0.13200194  0.26241858     0.44100
H94         H  0.35404952  0.39025204  0.23586293     0.42800
H95         H  0.03419879  0.35150594  0.21419150     0.43000
H96         H  0.16335928  0.05860081  0.23608721     0.43300
C97         C  0.41533779  0.06771966  0.46130387     0.86200
C98         C  0.42344197  0.11404145  0.46602494    -0.54000
C99         C  0.42294484  0.12785117  0.49635227     0.09200
C100        C  0.40257466  0.08926016  0.01935879     0.20100
C101        C  0.43909791  0.04650135  0.49079284    -0.54700
C102        C  0.43373376  0.05761237  0.02137444     0.09300
C103        C  0.37037061  0.06510474  0.47040011    -0.54200
C104        C  0.36183063  0.06800819  0.50161347     0.09800
H105        H  0.43750971  0.13308887  0.44768016     0.14400
H106        H  0.39201221  0.10360537  0.04251989     0.00100
H107        H  0.45961804  0.02085852  0.48742160     0.14700
H108        H  0.34648058  0.05579066  0.45470368     0.14500
C109        C  0.08627396  0.40493134  0.45124053     0.86200
C110        C  0.07779548  0.35868186  0.45527221    -0.54000
C111        C  0.07682989  0.34700331  0.48536322     0.09200
C112        C  0.11231687  0.37284603  0.00701580     0.20100
C113        C  0.06641711  0.42706812  0.48420204    -0.54700
C114        C  0.08754591  0.40834543  0.01399964     0.09300
C115        C  0.13203395  0.40847313  0.45712862    -0.54200
C116        C  0.14181849  0.40357040  0.48765618     0.09800
H117        H  0.06557816  0.33812275  0.43699381     0.14400
H118        H  0.12198638  0.35296649  0.02589478     0.00100
H119        H  0.04909047  0.45494670  0.48421882     0.14700
H120        H  0.15300126  0.42609677  0.44254335     0.14500
C121        C  0.09192214  0.07210851  0.46324220     0.86200
C122        C  0.13787221  0.07194042  0.46578252    -0.54000
C123        C  0.15041560  0.07825144  0.49514987     0.09200
C124        C  0.12166847  0.10586305  0.01303979     0.20100
C125        C  0.07521233  0.05348782  0.49840995    -0.54700
C126        C  0.09622996  0.07257266  0.02420899     0.09300
C127        C  0.07938443  0.11640673  0.46534735    -0.54200
C128        C  0.08377367  0.13409743  0.49378178     0.09800
H129        H  0.15597554  0.05234225  0.44925390     0.14400
H130        H  0.13526797  0.12641479  0.03175573     0.00100
H131        H  0.05640434  0.02614247  0.50064722     0.14700
H132        H  0.05738789  0.12815250  0.44859746     0.14500
C133        C  0.03535259  0.32688791  0.49777815    -0.11100
C134        C  0.99542996  0.34627264  0.49538354    -0.05000
C135        C  0.46125845  0.32889236  0.50588055    -0.11100
C136        C  0.46359008  0.28505843  0.50817898     0.09900
C137        C  0.99762886  0.26172417  0.50832008    -0.02900
C138        C  0.03496960  0.28468666  0.50556740     0.09700
C139        C  0.07207288  0.26412923  0.50869702    -0.12900
C140        C  0.07358365  0.22153371  0.51004905    -0.12900
C141        C  0.03802427  0.19741959  0.50886966     0.09700
C142        C  0.99916322  0.21745784  0.51015431    -0.02900
C143        C  0.42752267  0.26138433  0.51008016    -0.13000
C144        C  0.42803470  0.21834042  0.50873976    -0.13000
C145        C  0.46467282  0.19645066  0.50608584     0.09900
C146        C  0.46391824  0.15248185  0.50288800    -0.11100
C147        C  0.00247898  0.13266564  0.49885141    -0.05000
C148        C  0.04122088  0.15417538  0.50398698    -0.11100
H149        H  0.10086181  0.28064525  0.50871586     0.07100
H150        H  0.10338330  0.20753605  0.51082988     0.07100
H151        H  0.39801161  0.27602849  0.51211241     0.07300
H152        H  0.39901527  0.20223525  0.50969379     0.07300
H153        H  0.99493258  0.37831910  0.48875436     0.03700
H154        H  0.00363871  0.10098096  0.48983254     0.03700
C155        C  0.44773682  0.07536798  0.11226298    -0.09400
C156        C  0.42010788  0.04688840  0.12406769     0.06800
C157        C  0.40160593  0.01968431  0.10208030    -0.03200
C158        C  0.41473259  0.01787081  0.06967639    -0.07600
C159        C  0.44133867  0.04768900  0.05634679     0.05900
C160        C  0.45467040  0.07906099  0.07928971    -0.02600
Br161      Br  0.46821161  0.13532317  0.07220391    -0.02300
H162        H  0.46191964  0.09693685  0.12903457     0.09800
H163        H  0.39917293  0.99677759  0.05417529     0.07800
Br164      Br  0.35291741  0.49187612  0.11511520    -0.02800
C165        C  0.45753932  0.07571607  0.41005492    -0.09400
C166        C  0.42377795  0.05609826  0.42500198     0.06800
C167        C  0.39388863  0.03877425  0.40367546    -0.03200
C168        C  0.39596644  0.04637714  0.37047155    -0.07600
C169        C  0.42804406  0.06919966  0.35670376     0.05900
C170        C  0.45818929  0.08499142  0.37741443    -0.02600
Br171      Br  0.50161330  0.11976105  0.36188288    -0.02300
H172        H  0.48204472  0.08785911  0.42458274     0.09800
H173        H  0.37480135  0.03041222  0.35481474     0.07800
Br174      Br  0.35431027  0.99676902  0.41505793    -0.02800
C175        C  0.09872305  0.10642222  0.11463920    -0.09400
C176        C  0.11700038  0.07355669  0.12947054     0.06800
C177        C  0.13375959  0.04241966  0.10873202    -0.03200
C178        C  0.12550104  0.04118516  0.07533315    -0.07600
C179        C  0.09899048  0.06975266  0.06128229     0.05900
C180        C  0.08810176  0.10434951  0.08231383    -0.02600
Br181      Br  0.05597148  0.15096877  0.07254424    -0.02300
H182        H  0.08644846  0.13132672  0.12983293     0.09800
H183        H  0.13876457  0.01644860  0.06102553     0.07800
Br184      Br  0.14657547  0.51937862  0.13285324    -0.02800
C185        C  0.07097610  0.01554772  0.38341448    -0.09400
C186        C  0.08744614  0.04305686  0.36030517     0.06800
C187        C  0.10672068  0.07897309  0.37164598    -0.03200
C188        C  0.10742917  0.08672659  0.40464501    -0.07600
C189        C  0.08679109  0.06084743  0.42752286     0.05900
C190        C  0.06648953  0.02650194  0.41573087    -0.02600
Br191      Br  0.02449141  0.00121818  0.43987831    -0.02300
H192        H  0.05779776  0.98645420  0.37608080     0.09800
H193        H  0.12380151  0.11418687  0.41271120     0.07800
Br194      Br  0.13119725  0.11924936  0.34406599    -0.02800
C195        C  0.10264870  0.40897812  0.10606846    -0.09400
C196        C  0.07653856  0.44059805  0.11511620     0.06800
C197        C  0.06220051  0.46674336  0.09075337    -0.03200
C198        C  0.07435395  0.46044730  0.05886916    -0.07600
C199        C  0.09202849  0.42386861  0.04889073     0.05900
C200        C  0.11272832  0.40177465  0.07378760    -0.02600
Br201      Br  0.16491326  0.37403322  0.07081920    -0.02300
H202        H  0.11754325  0.39175776  0.12439576     0.09800
H203        H  0.06671202  0.48280535  0.04130373     0.07800
Br204      Br  0.01914855  0.50625814  0.09644372    -0.02800
C205        C  0.10557042  0.43404978  0.39430782    -0.09400
C206        C  0.07628943  0.41533798  0.41540683     0.06800
C207        C  0.04251939  0.39665912  0.39976579    -0.03200
C208        C  0.03969793  0.39452796  0.36647203    -0.07600
C209        C  0.06879063  0.41250127  0.34623374     0.05900
C210        C  0.10262157  0.43182879  0.36052807    -0.02600
Br211      Br  0.14238664  0.46119625  0.33527850    -0.02300
H212        H  0.13013273  0.45288659  0.40331228     0.09800
H213        H  0.01248402  0.38103416  0.35612250     0.07800
Br214      Br  0.99816290  0.37165262  0.42123761    -0.02800
C215        C  0.39308820  0.41069291  0.06914387    -0.09400
C216        C  0.42444003  0.41913129  0.04574081     0.06800
C217        C  0.46268163  0.42492712  0.05654451    -0.03200
C218        C  0.47219041  0.41501925  0.08805540    -0.07600
C219        C  0.44151902  0.40739007  0.11188149     0.05900
C220        C  0.40149786  0.40348304  0.10142258    -0.02600
Br221      Br  0.35778851  0.38621006  0.12944545    -0.02300
H222        H  0.36180149  0.40704180  0.06202234     0.09800
H223        H  0.50336684  0.41613435  0.09476121     0.07800
Br224      Br  0.49460249  0.45823586  0.02957023    -0.02800
C225        C  0.42578283  0.43403228  0.40714263    -0.09400
C226        C  0.40520078  0.40029905  0.41860460     0.06800
C227        C  0.38821238  0.37158864  0.39554832    -0.03200
C228        C  0.39406590  0.37743004  0.36204635    -0.07600
C229        C  0.41705957  0.41123119  0.35102103     0.05900
C230        C  0.43339112  0.43835647  0.37496983    -0.02600
Br231      Br  0.97062295  0.48940909  0.36584474    -0.02300
H232        H  0.43775298  0.45720449  0.42345869     0.09800
H233        H  0.38015588  0.35620941  0.34497222     0.07800
Br234      Br  0.35577770  0.32467815  0.40801210    -0.02800
C235        C  0.33803846  0.02693827  0.51231503    -0.11100
C236        C  0.35970783  0.47857398  0.00431529    -0.05000
C237        C  0.33835945  0.43858725  0.00591784    -0.11100
C238        C  0.29635118  0.44087758  0.01248007     0.09900
C239        C  0.27608343  0.47997789  0.01500603    -0.02900
C240        C  0.29521235  0.02749692  0.51802462     0.09700
C241        C  0.27491646  0.06552022  0.52089387    -0.12900
C242        C  0.23274464  0.06750325  0.51947285    -0.12900
C243        C  0.20897556  0.03154074  0.51517808     0.09700
C244        C  0.22792888  0.99182593  0.51680922    -0.02900
C245        C  0.27350602  0.40406541  0.01355344    -0.13000
C246        C  0.23169230  0.40456395  0.01191942    -0.13000
C247        C  0.21065859  0.44192284  0.01021903     0.09900
C248        C  0.16906037  0.44079528  0.00282815    -0.11100
C249        C  0.14705152  0.99503638  0.49981873    -0.05000
C250        C  0.16786974  0.03484894  0.50643135    -0.11100
H251        H  0.29170011  0.09447417  0.52256714     0.07100
H252        H  0.21904250  0.09792761  0.52011047     0.07100
H253        H  0.28790607  0.37400946  0.01381470     0.07300
H254        H  0.21610126  0.37491661  0.01065049     0.07300
H255        H  0.39072413  0.47948030  0.99623752     0.03700
H256        H  0.11839530  0.99464603  0.48811434     0.03700
C257        C  0.40788289  0.39285566  0.95132776     0.86200
C258        C  0.36332878  0.39674050  0.96082617    -0.54000
C259        C  0.35674552  0.39571736  0.99252172     0.09200
C260        C  0.38914826  0.38138730  0.51459601     0.20100
C261        C  0.43100881  0.41958818  0.97958205    -0.54700
C262        C  0.41396666  0.41838623  0.51303122     0.09300
C263        C  0.42104011  0.34878433  0.95746435    -0.54200
C264        C  0.42212228  0.33987677  0.98851923     0.09800
H265        H  0.34319987  0.41427352  0.94593474     0.14400
H266        H  0.38029827  0.36997064  0.53864792     0.00100
H267        H  0.45035765  0.44610129  0.97520775     0.14700
H268        H  0.43905041  0.33119339  0.93980528     0.14500
O269        O  0.42333251  0.41409705  0.78848025    -0.75500
O270        O  0.43132303  0.47434332  0.81388387    -0.54400
C271        C  0.42394442  0.43620904  0.81496893     0.78200
O272        O  0.07102384  0.41419552  0.67238667    -0.60100
O273        O  0.06075981  0.47882729  0.65894400    -0.53200
C274        C  0.06815431  0.44215509  0.65091343     0.70200
O275        O  0.07702199  0.41156187  0.78859648    -0.74700
O276        O  0.01969922  0.42992665  0.81608099    -0.55300
C277        C  0.05572313  0.41550549  0.81500313     0.76200
O278        O  0.42055257  0.43458197  0.67187523    -0.59800
O279        O  0.47700486  0.46147278  0.64811281    -0.53000
C280        C  0.44287898  0.44301405  0.64663967     0.72800
Zr281      Zr  0.43343004  0.44053535  0.73143558     2.55100
O282        O  0.42247333  0.36655791  0.72219931    -0.80400
O283        O  0.35940879  0.44425597  0.73353352    -0.93800
Zr284      Zr  0.05887025  0.42483334  0.73163665     2.64700
O285        O  0.05836910  0.34942471  0.73160761    -0.98800
O286        O  0.13273290  0.42084841  0.72630600    -0.80800
O287        O  0.99536230  0.42538997  0.75559401    -0.84200
O288        O  0.99843489  0.42434038  0.70202783    -2.18900
O289        O  0.41792592  0.06513252  0.68278515    -0.67600
O290        O  0.44047450  0.00722657  0.65769100    -0.52100
C291        C  0.42255295  0.04147540  0.65744333     0.71200
O292        O  0.08935599  0.05444295  0.80101204    -0.60500
O293        O  0.04766701  0.00752531  0.82408164    -0.52500
C294        C  0.07639647  0.03364590  0.82558069     0.73000
O295        O  0.10982807  0.05413474  0.68806496    -0.71900
O296        O  0.05418479  0.05538861  0.65815118    -0.50600
C297        C  0.09250026  0.05912044  0.66099536     0.74400
O298        O  0.41393503  0.06327059  0.79913403    -0.67200
O299        O  0.47524191  0.05007754  0.81766121    -0.54400
C300        C  0.43921259  0.06248724  0.82237954     0.72800
Zr301      Zr  0.43105469  0.05165642  0.74067965     2.77500
O302        O  0.42752009  0.12687103  0.74521761    -0.98000
O303        O  0.35722586  0.05545255  0.73839048    -0.78800
Zr304      Zr  0.07482142  0.04954961  0.74180594     2.70100
O305        O  0.07998746  0.12471622  0.73970457    -0.80000
O306        O  0.14693551  0.05221413  0.75412452    -0.99100
Zr307      Zr  0.99072803  0.48376501  0.78624536     2.21500
Zr308      Zr  0.99785986  0.49366417  0.68304974     2.11100
O309        O  0.01578248  0.06558973  0.71149036    -2.47800
O310        O  0.00922946  0.05065656  0.76212959    -0.79800
O311        O  0.44626398  0.50558611  0.71202543    -0.72000
O312        O  0.05787002  0.48589311  0.76377109    -2.33000
O313        O  0.42967138  0.50283712  0.76316448    -2.29200
O314        O  0.05425330  0.49037812  0.71242278    -0.73800
H315        H  0.00006123  0.40190742  0.68674944     0.78200
H316        H  0.08035135  0.48407346  0.77817313     0.79300
H317        H  0.01910120  0.09055054  0.69935349     0.81500
H318        H  0.40331771  0.50540680  0.77379073     0.79100
H319        H  0.13966681  0.43580830  0.70647676     0.42200
H320        H  0.15999824  0.03261526  0.73851345     0.41100
H321        H  0.10375303  0.12984152  0.72528070     0.40800
H322        H  0.45237379  0.13514009  0.75681440     0.38800
H323        H  0.34897466  0.02899278  0.72784097     0.41900
H324        H  0.35028817  0.41974026  0.72080765     0.36700
H325        H  0.45005727  0.35447735  0.72268764     0.42800
H326        H  0.03408152  0.34211458  0.74483460     0.39200
H327        H  0.43250479  0.13641860  0.72310980     0.44100
H328        H  0.35296218  0.46818601  0.72020081     0.42800
H329        H  0.05108264  0.34107561  0.70948414     0.43000
H330        H  0.15632710  0.07994996  0.74738360     0.43300
C331        C  0.41830962  0.06306329  0.96134491     0.86200
C332        C  0.42597739  0.10930828  0.96667409    -0.54000
C333        C  0.42694398  0.12194385  0.99714291     0.09200
C334        C  0.39781751  0.09535172  0.51860910     0.20100
C335        C  0.44316677  0.04114580  0.99007830    -0.54700
C336        C  0.42891213  0.06375481  0.52163425     0.09300
C337        C  0.37372551  0.05967734  0.97133260    -0.54200
C338        C  0.36620669  0.06260264  0.00271761     0.09800
H339        H  0.43890753  0.12920702  0.94838155     0.14400
H340        H  0.38681729  0.11008791  0.54151239     0.00100
H341        H  0.46385894  0.01575850  0.98602156     0.14700
H342        H  0.34954071  0.04948714  0.95626780     0.14500
C343        C  0.09358148  0.40045947  0.95207748     0.86200
C344        C  0.08324596  0.35470112  0.95715607    -0.54000
C345        C  0.08166834  0.34409877  0.98757997     0.09200
C346        C  0.10705638  0.37573840  0.50510789     0.20100
C347        C  0.07407785  0.42449859  0.98413808    -0.54700
C348        C  0.08113836  0.40996538  0.51338255     0.09300
C349        C  0.13928521  0.40303530  0.95835032    -0.54200
C350        C  0.14847743  0.39880060  0.98922958     0.09800
H351        H  0.06961499  0.33445950  0.93925385     0.14400
H352        H  0.11840291  0.35520063  0.52305129     0.00100
H353        H  0.05899213  0.45358778  0.98312436     0.14700
H354        H  0.16029400  0.42071014  0.94382250     0.14500
C355        C  0.09946781  0.06833378  0.96169418     0.86200
C356        C  0.14529234  0.06942205  0.96563119    -0.54000
C357        C  0.15620483  0.07584004  0.99550620     0.09200
C358        C  0.11757303  0.10835021  0.51400987     0.20100
C359        C  0.08149330  0.04989278  0.99629636    -0.54700
C360        C  0.09226831  0.07522098  0.52590007     0.09300
C361        C  0.08570216  0.11232098  0.96296645    -0.54200
C362        C  0.08849141  0.13060520  0.99140327     0.09800
H363        H  0.16451130  0.05028004  0.94961573     0.14400
H364        H  0.13338235  0.12832040  0.53188930     0.00100
H365        H  0.06337918  0.02196741  0.99810728     0.14700
H366        H  0.06423031  0.12327778  0.94551393     0.14500
C367        C  0.04027506  0.32365501  0.00010321    -0.11100
C368        C  0.00026503  0.34302850  0.99854661    -0.05000
C369        C  0.46422884  0.32124831  0.99907492    -0.11100
C370        C  0.46680466  0.27793750  0.00241773     0.09900
C371        C  0.00250833  0.25801392  0.00938486    -0.02900
C372        C  0.03987266  0.28105172  0.00669230     0.09700
C373        C  0.07697526  0.26024354  0.00878366    -0.12900
C374        C  0.07837691  0.21758174  0.00884354    -0.12900
C375        C  0.04271163  0.19373282  0.00704583     0.09700
C376        C  0.00390751  0.21368677  0.00983476    -0.02900
C377        C  0.43084425  0.25430223  0.00477589    -0.13000
C378        C  0.43172386  0.21153040  0.00555027    -0.13000
C379        C  0.46861805  0.19001865  0.00414049     0.09900
C380        C  0.46810361  0.14618601  0.00296403    -0.11100
C381        C  0.00666549  0.12987326  0.99527732    -0.05000
C382        C  0.04565500  0.15084661  0.00065916    -0.11100
H383        H  0.10580812  0.27668595  0.00898185     0.07100
H384        H  0.10815204  0.20345161  0.00890288     0.07100
H385        H  0.40117543  0.26869923  0.00595629     0.07300
H386        H  0.40274675  0.19542661  0.00715523     0.07300
H387        H  0.99958946  0.37522489  0.99254430     0.03700
H388        H  0.00753788  0.09930725  0.98407066     0.03700
C389        C  0.44345173  0.08245679  0.61237564    -0.09400
C390        C  0.41543003  0.05472060  0.62467039     0.06800
C391        C  0.39563927  0.02812051  0.60296839    -0.03200
C392        C  0.40816381  0.02563548  0.57042892    -0.07600
C393        C  0.43576134  0.05435163  0.55678437     0.05900
C394        C  0.45017310  0.08554172  0.57937567    -0.02600
Br395      Br  0.46648464  0.14081391  0.57187618    -0.02300
H396        H  0.45890711  0.10342998  0.62889363     0.09800
H397        H  0.39182199  0.00472890  0.55518289     0.07800
Br398      Br  0.33831657  0.54215814  0.63420333    -0.02800
C399        C  0.45919627  0.07356590  0.90980254    -0.09400
C400        C  0.42574316  0.05320665  0.92463646     0.06800
C401        C  0.39507246  0.03746313  0.90329062    -0.03200
C402        C  0.39621923  0.04705533  0.87043232    -0.07600
C403        C  0.42820893  0.07015396  0.85689133     0.05900
C404        C  0.45895740  0.08478650  0.87756899    -0.02600
Br405      Br  0.50234829  0.12002926  0.86250759    -0.02300
H406        H  0.48411675  0.08481141  0.92430414     0.09800
H407        H  0.37452634  0.03212904  0.85464426     0.07800
Br408      Br  0.35625078  0.99425993  0.91346319    -0.02800
C409        C  0.09995272  0.10517734  0.61690257    -0.09400
C410        C  0.11432147  0.06963481  0.63055111     0.06800
C411        C  0.12959532  0.03849217  0.60922160    -0.03200
C412        C  0.12165084  0.03958725  0.57580136    -0.07600
C413        C  0.09809407  0.07146727  0.56266427     0.05900
C414        C  0.09228615  0.10687868  0.58419761    -0.02600
Br415      Br  0.07319017  0.16059537  0.57382060    -0.02300
H416        H  0.09006190  0.13055865  0.63267975     0.09800
H417        H  0.13303057  0.01457295  0.56077270     0.07800
Br418      Br  0.14437293  0.51241282  0.62790391    -0.02800
C419        C  0.07403733  0.01229082  0.88237619    -0.09400
C420        C  0.09105909  0.03913865  0.85903194     0.06800
C421        C  0.11364608  0.07317294  0.86998640    -0.03200
C422        C  0.11668492  0.08013162  0.90300395    -0.07600
C423        C  0.09507831  0.05560178  0.92622490     0.05900
C424        C  0.07186638  0.02287355  0.91482008    -0.02600
Br425      Br  0.02849936  0.00021449  0.93939921    -0.02300
H426        H  0.05847457  0.98432283  0.87528419     0.09800
H427        H  0.13474243  0.10659413  0.91079381     0.07800
Br428      Br  0.13905561  0.11222535  0.84183532    -0.02800
C429        C  0.09685395  0.40239737  0.60478299    -0.09400
C430        C  0.07247563  0.43435652  0.61597687     0.06800
C431        C  0.05772404  0.46274144  0.59326282    -0.03200
C432        C  0.06761846  0.45809122  0.56078436    -0.07600
C433        C  0.08508417  0.42247947  0.54889351     0.05900
C434        C  0.10656741  0.39863657  0.57224172    -0.02600
Br435      Br  0.16169439  0.37813753  0.56790961    -0.02300
H436        H  0.11245768  0.38364741  0.62180881     0.09800
H437        H  0.06031229  0.48197510  0.54438485     0.07800
Br438      Br  0.01571070  0.50249580  0.60147285    -0.02800
C439        C  0.11308237  0.42497257  0.89344254    -0.09400
C440        C  0.08345995  0.40999483  0.91609416     0.06800
C441        C  0.04737649  0.39404901  0.90228374    -0.03200
C442        C  0.04237893  0.39056713  0.86923958    -0.07600
C443        C  0.07133730  0.40547199  0.84729385     0.05900
C444        C  0.10744552  0.42256956  0.85983041    -0.02600
Br445      Br  0.14787931  0.44755398  0.83249847    -0.02300
H446        H  0.14045700  0.44044388  0.90093539     0.09800
H447        H  0.01380716  0.37818785  0.86048360     0.07800
Br448      Br  0.00308750  0.37385133  0.92653366    -0.02800
C449        C  0.38423660  0.43781062  0.56865292    -0.09400
C450        C  0.41696396  0.43997151  0.54541236     0.06800
C451        C  0.45505808  0.44371173  0.55695802    -0.03200
C452        C  0.46268577  0.43624187  0.58899154    -0.07600
C453        C  0.43103476  0.43479727  0.61258249     0.05900
C454        C  0.39097773  0.43587814  0.60178673    -0.02600
Br455      Br  0.34481426  0.43079271  0.63037001    -0.02300
H456        H  0.35322928  0.43371150  0.56142585     0.09800
H457        H  0.49366572  0.43289198  0.59577082     0.07800
Br458      Br  0.49408807  0.46123912  0.52737536    -0.02800
C459        C  0.43224052  0.43612029  0.90586607    -0.09400
C460        C  0.41151519  0.40124527  0.91526054     0.06800
C461        C  0.39378876  0.37538312  0.89059380    -0.03200
C462        C  0.39827242  0.38540795  0.85774861    -0.07600
C463        C  0.42046061  0.42063679  0.84872914     0.05900
C464        C  0.43827192  0.44460822  0.87390304    -0.02600
Br465      Br  0.97431491  0.47852659  0.86537141    -0.02300
H466        H  0.44492197  0.45701215  0.92363729     0.09800
H467        H  0.38389619  0.36618279  0.83957384     0.07800
Br468      Br  0.36227898  0.32648944  0.89970925    -0.02800
C469        C  0.34182841  0.51912115  0.01097199    -0.11100
C470        C  0.35456309  0.98559377  0.50568398    -0.05000
C471        C  0.33216973  0.94623768  0.50880192    -0.11100
C472        C  0.29031909  0.95002420  0.51597226     0.09900
C473        C  0.27140370  0.98980984  0.51808548    -0.02900
C474        C  0.29871125  0.51839936  0.01548683     0.09700
C475        C  0.27711301  0.55574185  0.01778947    -0.12900
C476        C  0.23479185  0.55634279  0.01635423    -0.12900
C477        C  0.21199063  0.51962265  0.01282291     0.09700
C478        C  0.23251153  0.48054160  0.01380154    -0.02900
C479        C  0.26612265  0.91409606  0.51818018    -0.13000
C480        C  0.22416714  0.91603221  0.51683636    -0.13000
C481        C  0.20466403  0.95398120  0.51359536     0.09900
C482        C  0.16363871  0.95421562  0.50431251    -0.11100
C483        C  0.15020391  0.48145345  0.00056828    -0.05000
C484        C  0.17001556  0.52153040  0.00591149    -0.11100
H485        H  0.29300070  0.58521861  0.01935214     0.07100
H486        H  0.22002374  0.58624551  0.01690912     0.07100
H487        H  0.27952815  0.88361134  0.51902030     0.07300
H488        H  0.20721241  0.88711016  0.51654919     0.07300
H489        H  0.38530399  0.98502729  0.49675014     0.03700
H490        H  0.12026813  0.48290419  0.99152684     0.03700
C491        C  0.40056471  0.89424899  0.45585446     0.86200
C492        C  0.35612172  0.90067596  0.46509315    -0.54000
C493        C  0.34932682  0.90210353  0.49685700     0.09200
C494        C  0.38945570  0.87209520  0.01312053     0.20100
C495        C  0.42454196  0.92209458  0.48282605    -0.54700
C496        C  0.41727483  0.90695771  0.01432403     0.09300
C497        C  0.41195901  0.85029392  0.46400692    -0.54200
C498        C  0.41269889  0.84346990  0.49540201     0.09800
H499        H  0.33659309  0.91756109  0.44935590     0.14400
H500        H  0.37855444  0.85689274  0.03525706     0.00100
H501        H  0.44508748  0.94728523  0.47729815     0.14700
H502        H  0.42913485  0.83068348  0.44717124     0.14500
O503        O  0.42583008  0.89967851  0.29232289    -0.75500
O504        O  0.43148885  0.96201365  0.31522198    -0.54400
C505        C  0.42438743  0.92401727  0.31773687     0.78200
O506        O  0.07134364  0.91304873  0.17116572    -0.60100
O507        O  0.07381788  0.97856371  0.15773323    -0.53200
C508        C  0.07437949  0.94087699  0.14960149     0.70200
O509        O  0.07493146  0.91029116  0.28618229    -0.74700
O510        O  0.01870357  0.93282210  0.31317255    -0.55300
C511        C  0.05371436  0.91606276  0.31239909     0.76200
O512        O  0.43150992  0.90768671  0.17309746    -0.59800
O513        O  0.48455726  0.94038773  0.14877935    -0.53000
C514        C  0.45355200  0.91682755  0.14765853     0.72800
Zr515      Zr  0.43829481  0.91983943  0.23356057     2.55100
O516        O  0.43770368  0.84438278  0.23080667    -0.80400
O517        O  0.36506059  0.90888653  0.23048950    -0.93800
Zr518      Zr  0.05938906  0.92732750  0.22967500     2.64700
O519        O  0.04832976  0.85263247  0.22955640    -0.98800
O520        O  0.13231991  0.91592170  0.22381232    -0.80800
O521        O  0.99648326  0.93718937  0.25314982    -0.84200
O522        O  0.00118332  0.93844315  0.19813216    -2.18900
O523        O  0.42010676  0.56352997  0.18115696    -0.67600
O524        O  0.43754270  0.50190495  0.16049434    -0.52100
C525        C  0.42346618  0.53748020  0.15720322     0.71200
O526        O  0.07839854  0.56337035  0.29783072    -0.60500
O527        O  0.03207276  0.52273726  0.32260820    -0.52500
C528        C  0.06365935  0.54508273  0.32305157     0.73000
O529        O  0.08209693  0.56912486  0.18321273    -0.71900
O530        O  0.02479273  0.55943713  0.15508648    -0.50600
C531        C  0.06221029  0.56967313  0.15675065     0.74400
O532        O  0.41412098  0.56342342  0.29761997    -0.67200
O533        O  0.47362883  0.54708036  0.31855322    -0.54400
C534        C  0.43804657  0.56154179  0.32168792     0.72800
Zr535      Zr  0.43109123  0.55012775  0.23936313     2.77500
O536        O  0.42618847  0.62541094  0.24110869    -0.98000
O537        O  0.35699086  0.55213022  0.23950524    -0.78800
Zr538      Zr  0.05624707  0.56149484  0.23990640     2.70100
O539        O  0.04449379  0.63564719  0.24667137    -0.80000
O540        O  0.12687030  0.58475149  0.24272662    -0.99100
Zr541      Zr  0.99891903  0.99344135  0.28634738     2.21500
Zr542      Zr  0.01399465  0.00785459  0.18117859     2.11100
O543        O  0.99523506  0.56830295  0.20995364    -2.47800
O544        O  0.99187556  0.55593146  0.26141310    -0.79800
O545        O  0.44089695  0.98604697  0.21408498    -0.72000
O546        O  0.06594703  0.98613882  0.26442032    -2.33000
O547        O  0.42727967  0.98286636  0.26338973    -2.29200
O548        O  0.06686140  0.99363010  0.21191579    -0.73800
H549        H  0.99987897  0.91765196  0.18096876     0.78200
H550        H  0.08752389  0.98158262  0.27917771     0.79300
H551        H  0.99524569  0.59336155  0.19783519     0.81500
H552        H  0.40023220  0.98259676  0.27316964     0.79100
H553        H  0.14400058  0.93019212  0.24279228     0.42200
H554        H  0.14301133  0.56118002  0.23386899     0.41100
H555        H  0.06431974  0.64499185  0.26288930     0.40800
H556        H  0.40951366  0.63197845  0.26059725     0.38800
H557        H  0.34979584  0.55155226  0.21660906     0.41900
H558        H  0.35556584  0.93129307  0.21677070     0.36700
H559        H  0.45486995  0.83606577  0.24870893     0.42800
H560        H  0.02239635  0.84891100  0.24172248     0.39200
H561        H  0.45393189  0.63521040  0.24636858     0.44100
H562        H  0.35436959  0.91634520  0.25221362     0.42800
H563        H  0.04158256  0.84529552  0.20711292     0.43000
H564        H  0.12982109  0.60654537  0.22653915     0.43300
C565        C  0.40967268  0.56746281  0.45953099     0.86200
C566        C  0.42081508  0.61285782  0.46614393    -0.54000
C567        C  0.41917729  0.62514664  0.49686131     0.09200
C568        C  0.40051870  0.58818612  0.01821396     0.20100
C569        C  0.43003663  0.54348741  0.48901233    -0.54700
C570        C  0.43271599  0.55771118  0.02033129     0.09300
C571        C  0.36384528  0.56742423  0.46678593    -0.54200
C572        C  0.35371619  0.56881471  0.49786011     0.09800
H573        H  0.43712148  0.63203402  0.44906085     0.14400
H574        H  0.38926754  0.60178551  0.04145767     0.00100
H575        H  0.45155561  0.51879090  0.48592647     0.14700
H576        H  0.34074599  0.55926675  0.44993382     0.14500
C577        C  0.09017268  0.90590368  0.44972209     0.86200
C578        C  0.08980331  0.85893472  0.45395423    -0.54000
C579        C  0.08654255  0.84796447  0.48436056     0.09200
C580        C  0.11665140  0.87945693  0.00658086     0.20100
C581        C  0.06384975  0.92430638  0.48080563    -0.54700
C582        C  0.08303972  0.90741790  0.01131049     0.09300
C583        C  0.13295101  0.91979693  0.45818368    -0.54200
C584        C  0.14293123  0.91397063  0.48882771     0.09800
H585        H  0.07928173  0.83769644  0.43529104     0.14400
H586        H  0.13040532  0.86636741  0.02808070     0.00100
H587        H  0.03723570  0.94251183  0.47885343     0.14700
H588        H  0.14799785  0.94480567  0.44569634     0.14500
C589        C  0.08683792  0.56719732  0.45929997     0.86200
C590        C  0.13153257  0.56103269  0.46458096    -0.54000
C591        C  0.14261226  0.56769506  0.49447858     0.09200
C592        C  0.11894505  0.59534611  0.01072032     0.20100
C593        C  0.06442733  0.54986974  0.49263638    -0.54700
C594        C  0.08726679  0.56657222  0.02025496     0.09300
C595        C  0.07952170  0.61281987  0.46150102    -0.54200
C596        C  0.08322581  0.62914577  0.49046656     0.09800
H597        H  0.14877206  0.53958389  0.44891273     0.14400
H598        H  0.13431299  0.61254499  0.03040731     0.00100
H599        H  0.04087027  0.52650484  0.49376293     0.14700
H600        H  0.06040099  0.62746646  0.44393869     0.14500
C601        C  0.04292019  0.82668681  0.49235460    -0.11100
C602        C  0.00310209  0.84774027  0.49476651    -0.05000
C603        C  0.45487915  0.82509490  0.50633239    -0.11100
C604        C  0.45765638  0.78177752  0.51119816     0.09900
C605        C  0.00293680  0.76141784  0.49850528    -0.02900
C606        C  0.04091506  0.78300359  0.49412411     0.09700
C607        C  0.07718359  0.76029047  0.49255963    -0.12900
C608        C  0.07702113  0.71782441  0.49485535    -0.12900
C609        C  0.04052732  0.69540892  0.49790066     0.09700
C610        C  0.00275864  0.71710585  0.49971456    -0.02900
C611        C  0.42198667  0.75760307  0.51403804    -0.13000
C612        C  0.42327984  0.71450812  0.51433778    -0.13000
C613        C  0.46028048  0.69317942  0.51149537     0.09900
C614        C  0.46015025  0.64935480  0.50618125    -0.11100
C615        C  0.00266082  0.63047898  0.49792382    -0.05000
C616        C  0.04180077  0.65177495  0.49846884    -0.11100
H617        H  0.10671508  0.77506736  0.49011577     0.07100
H618        H  0.10635032  0.70274175  0.49401626     0.07100
H619        H  0.39225337  0.77186830  0.51528032     0.07300
H620        H  0.39455295  0.69788732  0.51560636     0.07300
H621        H  0.00186315  0.88069352  0.49224978     0.03700
H622        H  0.00249593  0.59738881  0.49478934     0.03700
C623        C  0.44753038  0.57614701  0.11127593    -0.09400
C624        C  0.41966276  0.54821365  0.12333553     0.06800
C625        C  0.40108029  0.52065117  0.10159442    -0.03200
C626        C  0.41371710  0.51859338  0.06903949    -0.07600
C627        C  0.44055928  0.54808418  0.05541277     0.05900
C628        C  0.45458525  0.57929536  0.07828926    -0.02600
Br629      Br  0.47090866  0.63475130  0.07173650    -0.02300
H630        H  0.46230856  0.59741914  0.12797435     0.09800
H631        H  0.39797280  0.49721194  0.05373600     0.07800
Br632      Br  0.35192490  0.99278418  0.11460965    -0.02800
C633        C  0.45363847  0.57607228  0.40923136    -0.09400
C634        C  0.41959663  0.55616755  0.42350566     0.06800
C635        C  0.39036800  0.53889031  0.40172746    -0.03200
C636        C  0.39309871  0.54697185  0.36866056    -0.07600
C637        C  0.42526217  0.57037608  0.35560239     0.05900
C638        C  0.45473485  0.58622830  0.37681799    -0.02600
Br639      Br  0.49751922  0.62255271  0.36241498    -0.02300
H640        H  0.47809188  0.58760840  0.42406351     0.09800
H641        H  0.37242850  0.53101818  0.35259120     0.07800
Br642      Br  0.35087182  0.49667324  0.41286774    -0.02800
C643        C  0.05880142  0.60411194  0.10620447    -0.09400
C644        C  0.08097327  0.57805488  0.12506809     0.06800
C645        C  0.10879079  0.55087843  0.10929406    -0.03200
C646        C  0.10814439  0.54579918  0.07539904    -0.07600
C647        C  0.08061474  0.56795316  0.05654530     0.05900
C648        C  0.06458408  0.60391376  0.07316680    -0.02600
Br649      Br  0.07827146  0.66020454  0.06368846    -0.02300
H650        H  0.04022298  0.62798654  0.11786551     0.09800
H651        H  0.12924494  0.52430872  0.06389624     0.07800
Br652      Br  0.16779517  0.00056469  0.12521578    -0.02800
C653        C  0.06309642  0.51821408  0.37785317    -0.09400
C654        C  0.08020145  0.54690141  0.35598785     0.06800
C655        C  0.10492916  0.57817906  0.36835132    -0.03200
C656        C  0.10757325  0.58233198  0.40166088    -0.07600
C657        C  0.08325546  0.55771526  0.42342223     0.05900
C658        C  0.06032969  0.52592402  0.41055166    -0.02600
Br659      Br  0.02149869  0.49564520  0.43499281    -0.02300
H660        H  0.04875099  0.49045192  0.36917949     0.09800
H661        H  0.12760448  0.60642394  0.41086474     0.07800
Br662      Br  0.13565733  0.61485896  0.34154795    -0.02800
C663        C  0.07704491  0.89085558  0.10302276    -0.09400
C664        C  0.07640096  0.93135120  0.11447872     0.06800
C665        C  0.07247630  0.96272608  0.09170387    -0.03200
C666        C  0.07731695  0.95441779  0.05899346    -0.07600
C667        C  0.07347277  0.91430063  0.04677508     0.05900
C668        C  0.07358054  0.88171514  0.07020827    -0.02600
Br669      Br  0.07213628  0.82297849  0.06301811    -0.02300
H670        H  0.07835272  0.86596455  0.11992787     0.09800
H671        H  0.07893338  0.97986613  0.04266943     0.07800
Br672      Br  0.03988430  0.00955502  0.10064075    -0.02800
C673        C  0.11129161  0.92490460  0.39030899    -0.09400
C674        C  0.08073003  0.91232070  0.41320745     0.06800
C675        C  0.04522619  0.89502829  0.39949835    -0.03200
C676        C  0.03986067  0.89175880  0.36651962    -0.07600
C677        C  0.06885273  0.90623827  0.34461234     0.05900
C678        C  0.10542417  0.92244095  0.35680821    -0.02600
Br679      Br  0.14696644  0.94484000  0.32905996    -0.02300
H680        H  0.14059090  0.93649007  0.39728370     0.09800
H681        H  0.01148395  0.87892939  0.35771186     0.07800
Br682      Br  0.00455374  0.86832331  0.42309148    -0.02800
C683        C  0.39295339  0.91323461  0.07252694    -0.09400
C684        C  0.42383543  0.92032754  0.04857348     0.06800
C685        C  0.46270911  0.92407926  0.05838568    -0.03200
C686        C  0.47299207  0.91323852  0.08951187    -0.07600
C687        C  0.44268544  0.90622376  0.11377608     0.05900
C688        C  0.40218324  0.90440983  0.10427073    -0.02600
Br689      Br  0.35870818  0.88788165  0.13283019    -0.02300
H690        H  0.36128940  0.91135122  0.06605547     0.09800
H691        H  0.50450097  0.91346246  0.09562101     0.07800
Br692      Br  0.49509068  0.95542573  0.03037580    -0.02800
C693        C  0.42770913  0.93259714  0.40879431    -0.09400
C694        C  0.40514148  0.89962823  0.41951120     0.06800
C695        C  0.38734408  0.87230994  0.39581401    -0.03200
C696        C  0.39409451  0.87866412  0.36254065    -0.07600
C697        C  0.41840104  0.91178410  0.35220548     0.05900
C698        C  0.43535894  0.93781033  0.37657893    -0.02600
Br699      Br  0.97994327  0.98865989  0.36460068    -0.02300
H700        H  0.44060088  0.95448693  0.42572336     0.09800
H701        H  0.37983721  0.85831149  0.34503464     0.07800
Br702      Br  0.35324077  0.82596099  0.40684555    -0.02800
C703        C  0.33165415  0.52638250  0.50758701    -0.11100
C704        C  0.35880930  0.98080102  0.00641329    -0.05000
C705        C  0.33658907  0.94152938  0.00958357    -0.11100
C706        C  0.29489652  0.94564132  0.01760680     0.09900
C707        C  0.27617972  0.98566083  0.02021497    -0.02900
C708        C  0.28925894  0.52481254  0.51401404     0.09700
C709        C  0.26737318  0.56174838  0.51789688    -0.12900
C710        C  0.22515799  0.56157368  0.51800319    -0.12900
C711        C  0.20310222  0.52451178  0.51375899     0.09700
C712        C  0.22414596  0.48579085  0.51360494    -0.02900
C713        C  0.27051118  0.90999485  0.02006157    -0.13000
C714        C  0.22854302  0.91247809  0.01911650    -0.13000
C715        C  0.20943159  0.95066148  0.01550277     0.09900
C716        C  0.16899784  0.95125753  0.00515098    -0.11100
C717        C  0.14197883  0.48590399  0.50033748    -0.05000
C718        C  0.16143578  0.52604059  0.50673305    -0.11100
H719        H  0.28280368  0.59147134  0.51954351     0.07100
H720        H  0.20992261  0.59120865  0.51980732     0.07100
H721        H  0.28377139  0.87941250  0.02062142     0.07300
H722        H  0.21131888  0.88372618  0.01893594     0.07300
H723        H  0.38912162  0.98046299  0.99669397     0.03700
H724        H  0.11205425  0.48695721  0.49105716     0.03700
C725        C  0.40487817  0.89185151  0.95524883     0.86200
C726        C  0.36036644  0.89739368  0.96488892    -0.54000
C727        C  0.35377090  0.89766886  0.99668707     0.09200
C728        C  0.38436455  0.87683911  0.51420684     0.20100
C729        C  0.42883327  0.91899590  0.98256433    -0.54700
C730        C  0.41251946  0.91141470  0.51480605     0.09300
C731        C  0.41722500  0.84790050  0.96231261    -0.54200
C732        C  0.41824913  0.83999440  0.99345523     0.09800
H733        H  0.34060189  0.91477298  0.94965363     0.14400
H734        H  0.37302887  0.86293032  0.53674020     0.00100
H735        H  0.44916708  0.94447298  0.97738670     0.14700
H736        H  0.43501435  0.82945812  0.94504601     0.14500
O737        O  0.42831500  0.89996969  0.79207307    -0.75500
O738        O  0.43198265  0.96207094  0.81545169    -0.54400
C739        C  0.42671432  0.92377953  0.81772457     0.78200
O740        O  0.07033625  0.90921967  0.67139020    -0.60100
O741        O  0.07310151  0.97477537  0.65878623    -0.53200
C742        C  0.07279288  0.93741741  0.65001097     0.70200
O743        O  0.07646191  0.90844717  0.78724751    -0.74700
O744        O  0.02130232  0.93201358  0.81525064    -0.55300
C745        C  0.05609147  0.91478321  0.81384564     0.76200
O746        O  0.42813048  0.91321486  0.67358608    -0.59800
O747        O  0.48248364  0.94353849  0.64935864    -0.53000
C748        C  0.45017271  0.92190376  0.64808594     0.72800
Zr749      Zr  0.43712815  0.92322864  0.73392947     2.55100
O750        O  0.43342791  0.84822527  0.72656553    -0.80400
O751        O  0.36322439  0.91678932  0.73453332    -0.93800
Zr752      Zr  0.06008928  0.92390579  0.73040978     2.64700
O753        O  0.05156045  0.84897514  0.73228230    -0.98800
O754        O  0.13320304  0.91351531  0.72458260    -0.80800
O755        O  0.99709483  0.93329126  0.75407312    -0.84200
O756        O  0.00120188  0.93327135  0.69940759    -2.18900
O757        O  0.42060082  0.57751125  0.68135722    -0.67600
O758        O  0.46256139  0.53607376  0.65152142    -0.52100
C759        C  0.43387679  0.56172446  0.65410460     0.71200
O760        O  0.07834642  0.55551335  0.79815680    -0.60500
O761        O  0.03618011  0.51023328  0.82259296    -0.52500
C762        C  0.06570459  0.53541257  0.82313748     0.73000
O763        O  0.08313707  0.56185207  0.68408587    -0.71900
O764        O  0.02533550  0.55249884  0.65696022    -0.50600
C765        C  0.06263854  0.56311139  0.65804516     0.74400
O766        O  0.42394283  0.57915283  0.79779973    -0.67200
O767        O  0.48263307  0.55960385  0.81787718    -0.54400
C768        C  0.44751100  0.57463843  0.82192468     0.72800
Zr769      Zr  0.44148885  0.56758208  0.73895697     2.77500
O770        O  0.44485412  0.64297506  0.73882798    -0.98000
O771        O  0.36819027  0.57827083  0.74191270    -0.78800
Zr772      Zr  0.05701212  0.55215580  0.74034089     2.70100
O773        O  0.04621930  0.62654919  0.74664090    -0.80000
O774        O  0.12848536  0.57287992  0.74171771    -0.99100
Zr775      Zr  0.99903119  0.99026985  0.78666460     2.21500
Zr776      Zr  0.01258235  0.00258772  0.68148333     2.11100
O777        O  0.99547180  0.55885003  0.71107255    -2.47800
O778        O  0.99277970  0.54493856  0.76197410    -0.79800
O779        O  0.44019283  0.98931239  0.71447798    -0.72000
O780        O  0.06577779  0.98363194  0.76420104    -2.33000
O781        O  0.42660071  0.98588308  0.76443376    -2.29200
O782        O  0.06654439  0.98994886  0.71181733    -0.73800
H783        H  0.99950324  0.91188730  0.68332689     0.78200
H784        H  0.08752090  0.97970057  0.77890593     0.79300
H785        H  0.99481784  0.58440419  0.69960598     0.81500
H786        H  0.39989057  0.98572810  0.77471722     0.79100
H787        H  0.13596011  0.88756632  0.71158614     0.42200
H788        H  0.14304981  0.55149471  0.72858999     0.41100
H789        H  0.07094044  0.63724707  0.75727866     0.40800
H790        H  0.46755524  0.65034501  0.75312492     0.38800
H791        H  0.35695202  0.55747428  0.72661712     0.41900
H792        H  0.35349980  0.94491527  0.72984874     0.36700
H793        H  0.46209756  0.83958722  0.72323639     0.42800
H794        H  0.02178674  0.84439332  0.73104916     0.39200
H795        H  0.45517104  0.64966840  0.71707856     0.44100
H796        H  0.35562651  0.91291922  0.75735440     0.42800
H797        H  0.06256051  0.83855931  0.71135537     0.43000
H798        H  0.13043993  0.59827994  0.72891999     0.43300
C799        C  0.41836821  0.56400003  0.96001720     0.86200
C800        C  0.42400450  0.61039350  0.96620180    -0.54000
C801        C  0.42468164  0.62207203  0.99682542     0.09200
C802        C  0.38942694  0.59322348  0.51671832     0.20100
C803        C  0.44332436  0.54228334  0.98891130    -0.54700
C804        C  0.41566349  0.55752384  0.51966674     0.09300
C805        C  0.37384279  0.55794757  0.96935958    -0.54200
C806        C  0.36519389  0.56048336  0.00068271     0.09800
H807        H  0.43671823  0.63112534  0.94836437     0.14400
H808        H  0.37789943  0.60773476  0.53955851     0.00100
H809        H  0.46498586  0.51782368  0.98492019     0.14700
H810        H  0.35109520  0.54518347  0.95417470     0.14500
C811        C  0.09662756  0.90259007  0.95032009     0.86200
C812        C  0.09541264  0.85566604  0.95506499    -0.54000
C813        C  0.09216667  0.84514620  0.98566867     0.09200
C814        C  0.11098581  0.88196781  0.50562975     0.20100
C815        C  0.07044218  0.92186518  0.98083163    -0.54700
C816        C  0.07702104  0.90933740  0.51095556     0.09300
C817        C  0.13955490  0.91600998  0.95875282    -0.54200
C818        C  0.14888644  0.91084040  0.98962365     0.09800
H819        H  0.08449690  0.83440353  0.93656516     0.14400
H820        H  0.12477610  0.86837672  0.52694770     0.00100
H821        H  0.04504923  0.94128688  0.97781009     0.14700
H822        H  0.15531416  0.94026049  0.94590325     0.14500
C823        C  0.09333412  0.56209236  0.95861148     0.86200
C824        C  0.13815353  0.55524555  0.96337506    -0.54000
C825        C  0.15039537  0.56277059  0.99301762     0.09200
C826        C  0.11077430  0.59948522  0.51229782     0.20100
C827        C  0.07140936  0.54600323  0.99233503    -0.54700
C828        C  0.07926659  0.57011759  0.52111611     0.09300
C829        C  0.08675126  0.60798308  0.96025376    -0.54200
C830        C  0.09073597  0.62496084  0.98893523     0.09800
H831        H  0.15457465  0.53309821  0.94778057     0.14400
H832        H  0.12559419  0.61654699  0.53233817     0.00100
H833        H  0.04668240  0.52394066  0.99397033     0.14700
H834        H  0.06764699  0.62250123  0.94261573     0.14500
C835        C  0.04884228  0.82341655  0.99401580    -0.11100
C836        C  0.00893939  0.84433243  0.99686298    -0.05000
C837        C  0.46061869  0.82155600  0.00378532    -0.11100
C838        C  0.46338374  0.77821696  0.00763654     0.09900
C839        C  0.00915271  0.75755499  0.99832975    -0.02900
C840        C  0.04707477  0.77955378  0.99501792     0.09700
C841        C  0.08343279  0.75695477  0.99302601    -0.12900
C842        C  0.08346479  0.71424679  0.99397217    -0.12900
C843        C  0.04712148  0.69141211  0.99650708     0.09700
C844        C  0.00917383  0.71299680  0.99836505    -0.02900
C845        C  0.42761707  0.75421395  0.00960121    -0.13000
C846        C  0.42884351  0.71132432  0.00898316    -0.13000
C847        C  0.46592021  0.69010706  0.00680504     0.09900
C848        C  0.46587953  0.64634016  0.00330366    -0.11100
C849        C  0.00942529  0.62616902  0.99565546    -0.05000
C850        C  0.04873993  0.64757029  0.99675095    -0.11100
H851        H  0.11288776  0.77202512  0.99117075     0.07100
H852        H  0.11285437  0.69929450  0.99277964     0.07100
H853        H  0.39784970  0.76839311  0.01090316     0.07300
H854        H  0.39999884  0.69489910  0.00977754     0.07300
H855        H  0.00787634  0.87745666  0.99499329     0.03700
H856        H  0.00915273  0.59303822  0.99243741     0.03700
C857        C  0.45231634  0.58161227  0.60040364    -0.09400
C858        C  0.41993870  0.57215915  0.62161864     0.06800
C859        C  0.38578559  0.55222647  0.60816221    -0.03200
C860        C  0.38568319  0.54099956  0.57500092    -0.07600
C861        C  0.42047052  0.54699555  0.55455473     0.05900
C862        C  0.45318357  0.56583889  0.56897718    -0.02600
Br863      Br  0.50089034  0.56360264  0.54613814    -0.02300
H864        H  0.48024164  0.59466854  0.60985243     0.09800
H865        H  0.35778900  0.52895206  0.56525449     0.07800
Br866      Br  0.34556825  0.00276990  0.61626924    -0.02800
C867        C  0.46251219  0.57699951  0.91056017    -0.09400
C868        C  0.42755496  0.55659142  0.92310135     0.06800
C869        C  0.39764410  0.54424595  0.89981231    -0.03200
C870        C  0.40108150  0.55715161  0.86768147    -0.07600
C871        C  0.43472385  0.57997543  0.85646919     0.05900
C872        C  0.46467754  0.59116657  0.87899591    -0.02600
Br873      Br  0.50985026  0.62626041  0.86755772    -0.02300
H874        H  0.48653529  0.58641965  0.92663171     0.09800
H875        H  0.37987378  0.54468046  0.85035474     0.07800
Br876      Br  0.35772661  0.50048414  0.90515918    -0.02800
C877        C  0.05813869  0.60263836  0.60988039    -0.09400
C878        C  0.08019267  0.57389687  0.62637615     0.06800
C879        C  0.10527886  0.54658916  0.60805589    -0.03200
C880        C  0.10146645  0.54379276  0.57427705    -0.07600
C881        C  0.07401055  0.56876002  0.55758154     0.05900
C882        C  0.06016335  0.60397695  0.57659424    -0.02600
Br883      Br  0.06621562  0.66123873  0.56633368    -0.02300
H884        H  0.04153327  0.62640504  0.62346377     0.09800
H885        H  0.12074551  0.52215937  0.56114690     0.07800
Br886      Br  0.16013619  0.99347004  0.62522547    -0.02800
C887        C  0.06691570  0.51048258  0.87852157    -0.09400
C888        C  0.08248329  0.53901867  0.85588661     0.06800
C889        C  0.10604165  0.57190965  0.86730588    -0.03200
C890        C  0.11100769  0.57609629  0.90035609    -0.07600
C891        C  0.08812676  0.55159842  0.92303025     0.05900
C892        C  0.06471226  0.51942088  0.91107900    -0.02600
Br893      Br  0.02465100  0.49122978  0.93593088    -0.02300
H894        H  0.05265548  0.48224600  0.87073583     0.09800
H895        H  0.13093437  0.60082175  0.90866176     0.07800
Br896      Br  0.13015181  0.61255126  0.83987489    -0.02800
C897        C  0.07180000  0.88910215  0.60226118    -0.09400
C898        C  0.07246337  0.92914941  0.61462833     0.06800
C899        C  0.06833571  0.96153079  0.59255798    -0.03200
C900        C  0.07199368  0.95422650  0.55961530    -0.07600
C901        C  0.06713874  0.91470829  0.54654701     0.05900
C902        C  0.06723617  0.88129070  0.56932948    -0.02600
Br903      Br  0.06445089  0.82291432  0.56129506    -0.02300
H904        H  0.07318146  0.86356843  0.61859133     0.09800
H905        H  0.07391983  0.98021372  0.54380846     0.07800
Br906      Br  0.03682990  0.00918815  0.60251881    -0.02800
C907        C  0.11631969  0.92225450  0.89080601    -0.09400
C908        C  0.08650103  0.90937513  0.91408644     0.06800
C909        C  0.05026603  0.89299744  0.90109165    -0.03200
C910        C  0.04354976  0.89051560  0.86827320    -0.07600
C911        C  0.07202544  0.90483870  0.84586017     0.05900
C912        C  0.10919984  0.92047712  0.85744820    -0.02600
Br913      Br  0.14993861  0.94296958  0.82909217    -0.02300
H914        H  0.14589856  0.93350212  0.89741184     0.09800
H915        H  0.01465117  0.87829413  0.86004364     0.07800
Br916      Br  0.01012323  0.86709240  0.92564804    -0.02800
C917        C  0.38797175  0.92052691  0.57301013    -0.09400
C918        C  0.41885162  0.92633663  0.54879737     0.06800
C919        C  0.45771448  0.92996922  0.55850003    -0.03200
C920        C  0.46816478  0.91919416  0.58958258    -0.07600
C921        C  0.43806803  0.91305575  0.61413617     0.05900
C922        C  0.39731106  0.91273501  0.60499976    -0.02600
Br923      Br  0.35362321  0.89948964  0.63445042    -0.02300
H924        H  0.35626192  0.91895034  0.56662940     0.09800
H925        H  0.49975889  0.91851617  0.59530993     0.07800
Br926      Br  0.48948479  0.96191291  0.53057611    -0.02800
C927        C  0.43093815  0.93157634  0.90863241    -0.09400
C928        C  0.40903978  0.89804910  0.91909818     0.06800
C929        C  0.39160614  0.87062693  0.89533986    -0.03200
C930        C  0.39853458  0.87708965  0.86216593    -0.07600
C931        C  0.42212362  0.91079530  0.85202447     0.05900
C932        C  0.43845676  0.93719841  0.87645993    -0.02600
Br933      Br  0.97982618  0.98696273  0.86472832    -0.02300
H934        H  0.44317435  0.95368389  0.92574197     0.09800
H935        H  0.38452262  0.85667552  0.84457425     0.07800
Br936      Br  0.35710533  0.82446870  0.90621698    -0.02800
C937        C  0.84088959  0.02183674  0.00335645    -0.11100
C938        C  0.85656519  0.48534127  0.50135541    -0.05000
C939        C  0.83475263  0.44596733  0.50455117    -0.11100
C940        C  0.79347200  0.44933981  0.51315182     0.09900
C941        C  0.77401604  0.48888079  0.51630256    -0.02900
C942        C  0.79859744  0.02035613  0.01035993     0.09700
C943        C  0.77690982  0.05737193  0.01516937    -0.12900
C944        C  0.73463998  0.05749757  0.01681772    -0.12900
C945        C  0.71207751  0.02062911  0.01385036     0.09700
C946        C  0.73323820  0.98173206  0.01210678    -0.02900
C947        C  0.77022066  0.41307765  0.51529132    -0.13000
C948        C  0.72859386  0.41444574  0.51419322    -0.13000
C949        C  0.70819030  0.45222128  0.51268932     0.09900
C950        C  0.66700782  0.45160973  0.50478919    -0.11100
C951        C  0.64939153  0.98237752  0.00592076    -0.05000
C952        C  0.66938207  0.02249466  0.01028368    -0.11100
H953        H  0.79250229  0.08701980  0.01658457     0.07100
H954        H  0.71958617  0.08717048  0.01944861     0.07100
H955        H  0.78402673  0.38271929  0.51536627     0.07300
H956        H  0.71272220  0.38497355  0.51288440     0.07300
H957        H  0.88691152  0.48506920  0.49150921     0.03700
H958        H  0.61827635  0.98414266  0.99989115     0.03700
C959        C  0.90300145  0.39606225  0.45043789     0.86200
C960        C  0.85870477  0.40303778  0.45960148    -0.54000
C961        C  0.85150156  0.40239283  0.49121041     0.09200
C962        C  0.89098105  0.37233930  0.00986817     0.20100
C963        C  0.92702142  0.42214293  0.47836940    -0.54700
C964        C  0.91884943  0.40711662  0.01005570     0.09300
C965        C  0.91327955  0.35126586  0.45726943    -0.54200
C966        C  0.91412060  0.34297935  0.48843235     0.09800
H967        H  0.83979344  0.42156513  0.44448920     0.14400
H968        H  0.88001252  0.35860089  0.03258792     0.00100
H969        H  0.94759236  0.44762038  0.47370984     0.14700
H970        H  0.92939102  0.33170176  0.43979898     0.14500
O971        O  0.92359805  0.40944904  0.28741983    -0.75500
O972        O  0.92897229  0.47105933  0.31147042    -0.54400
C973        C  0.92283293  0.43280595  0.31332355     0.78200
O974        O  0.57476384  0.41576157  0.17611281    -0.60100
O975        O  0.56249505  0.47963996  0.16144566    -0.53200
C976        C  0.57214690  0.44329327  0.15413050     0.70200
O977        O  0.57582090  0.41447961  0.29303121    -0.74700
O978        O  0.51462535  0.42575550  0.31656127    -0.55300
C979        C  0.55217069  0.41675310  0.31820274     0.76200
O980        O  0.92830559  0.41657965  0.16914206    -0.59800
O981        O  0.97649327  0.45493719  0.14337617    -0.53000
C982        C  0.94855959  0.42762069  0.14329130     0.72800
Zr983      Zr  0.93308556  0.43251914  0.22935329     2.55100
O984        O  0.92287903  0.35771597  0.22723738    -0.80400
O985        O  0.85927374  0.43149795  0.22528409    -0.93800
Zr986      Zr  0.55972155  0.42572326  0.23563357     2.64700
O987        O  0.55993719  0.35036413  0.23698326    -0.98800
O988        O  0.63369381  0.42217234  0.23227906    -0.80800
O989        O  0.49553041  0.42666939  0.25866990    -0.84200
O990        O  0.50009521  0.42349459  0.20529904    -2.18900
O991        O  0.92296847  0.06486481  0.17966355    -0.67600
O992        O  0.98423132  0.06565142  0.15769726    -0.52100
C993        C  0.94620436  0.06607555  0.15433613     0.71200
O994        O  0.57606146  0.05883824  0.30289414    -0.60500
O995        O  0.53683213  0.01023419  0.32643825    -0.52500
C996        C  0.56429923  0.03775486  0.32766701     0.73000
O997        O  0.58214172  0.06440421  0.18791429    -0.71900
O998        O  0.52520390  0.05128528  0.16024669    -0.50600
C999        C  0.56181945  0.06415028  0.16170024     0.74400
O1000       O  0.93015752  0.07669433  0.29428332    -0.67200
O1001       O  0.98799866  0.05663349  0.31552803    -0.54400
C1002       C  0.95279641  0.07186464  0.31887567     0.72800
Zr1003     Zr  0.95070222  0.06790465  0.23585218     2.77500
O1004       O  0.96445375  0.14167864  0.22994919    -0.98000
O1005       O  0.88362450  0.09916683  0.24233400    -0.78800
Zr1006     Zr  0.55720352  0.05354736  0.24434887     2.70100
O1007       O  0.54672226  0.12794602  0.25046845    -0.80000
O1008       O  0.62876104  0.07379779  0.24641906    -0.99100
Zr1009     Zr  0.48929819  0.48437573  0.29011722     2.21500
Zr1010     Zr  0.49962440  0.49270047  0.18631782     2.11100
O1011       O  0.49602869  0.05760031  0.21432240    -2.47800
O1012       O  0.49278610  0.04558476  0.26536830    -0.79800
O1013       O  0.93777030  0.49883059  0.21048794    -0.72000
O1014       O  0.55691119  0.48677659  0.26836035    -2.33000
O1015       O  0.92424683  0.49572527  0.25988301    -2.29200
O1016       O  0.55518361  0.49111418  0.21667483    -0.73800
H1017       H  0.50265933  0.40110707  0.19003762     0.78200
H1018       H  0.57923451  0.48603882  0.28303483     0.79300
H1019       H  0.49482243  0.08307831  0.20280010     0.81500
H1020       H  0.89776452  0.49628556  0.27056544     0.79100
H1021       H  0.64287081  0.45136011  0.23462771     0.42200
H1022       H  0.64369566  0.05015833  0.23634517     0.41100
H1023       H  0.51975521  0.13061917  0.26136522     0.40800
H1024       H  0.99062016  0.14672111  0.24073899     0.38800
H1025       H  0.87762496  0.11043213  0.22112595     0.41900
H1026       H  0.85341838  0.45322809  0.20973639     0.36700
H1027       H  0.95042960  0.34620841  0.22980733     0.42800
H1028       H  0.54559398  0.34131675  0.21737953     0.39200
H1029       H  0.97078284  0.14505031  0.20685320     0.44100
H1030       H  0.84908433  0.44292943  0.24615152     0.42800
H1031       H  0.58870980  0.34279107  0.23258498     0.43000
H1032       H  0.63203564  0.09650119  0.23102161     0.43300
C1033       C  0.91692261  0.06893421  0.45706780     0.86200
C1034       C  0.92468926  0.11473051  0.46457276    -0.54000
C1035       C  0.92225250  0.12581299  0.49554198     0.09200
C1036       C  0.89718318  0.08879203  0.01406339     0.20100
C1037       C  0.93847911  0.04533494  0.48629762    -0.54700
C1038       C  0.92455491  0.05384066  0.01668722     0.09300
C1039       C  0.87133760  0.06522115  0.46419474    -0.54200
C1040       C  0.86059292  0.06688494  0.49524480     0.09800
H1041       H  0.94023074  0.13516146  0.44791477     0.14400
H1042       H  0.88488446  0.10201252  0.03710745     0.00100
H1043       H  0.96087521  0.02179073  0.48211553     0.14700
H1044       H  0.84898473  0.05520971  0.44735649     0.14500
C1045       C  0.59147835  0.41036863  0.45489452     0.86200
C1046       C  0.58210737  0.36407658  0.45891960    -0.54000
C1047       C  0.58183529  0.35191987  0.48902714     0.09200
C1048       C  0.61395462  0.37575647  0.00767797     0.20100
C1049       C  0.57224807  0.43245702  0.48771561    -0.54700
C1050       C  0.58798608  0.41001372  0.01623814     0.09300
C1051       C  0.63713458  0.41422171  0.46024907    -0.54200
C1052       C  0.64716127  0.40939022  0.49070696     0.09800
H1053       H  0.56690931  0.34505975  0.44098953     0.14400
H1054       H  0.62450116  0.35521138  0.02596060     0.00100
H1055       H  0.55617891  0.46075718  0.48720952     0.14700
H1056       H  0.65682027  0.43394215  0.44623135     0.14500
C1057       C  0.58708810  0.06884969  0.46383086     0.86200
C1058       C  0.63181708  0.06175859  0.46852142    -0.54000
C1059       C  0.64423784  0.06889110  0.49810886     0.09200
C1060       C  0.61666980  0.09573163  0.01650373     0.20100
C1061       C  0.56521999  0.05203544  0.49729036    -0.54700
C1062       C  0.58488915  0.06656378  0.02518787     0.09300
C1063       C  0.58068747  0.11480390  0.46588768    -0.54200
C1064       C  0.58457770  0.13139249  0.49482022     0.09800
H1065       H  0.64833728  0.04008965  0.45255786     0.14400
H1066       H  0.63135696  0.11250231  0.03675382     0.00100
H1067       H  0.54089417  0.02952716  0.49872980     0.14700
H1068       H  0.56172335  0.12959627  0.44831865     0.14500
C1069       C  0.54060538  0.33017030  0.50134757    -0.11100
C1070       C  0.50066124  0.35044839  0.50271892    -0.05000
C1071       C  0.95632777  0.32452954  0.49938466    -0.11100
C1072       C  0.95897923  0.28178715  0.50639248     0.09900
C1073       C  0.50189172  0.26389567  0.50693636    -0.02900
C1074       C  0.53962046  0.28646944  0.50438287     0.09700
C1075       C  0.57628454  0.26436230  0.50344612    -0.12900
C1076       C  0.57676810  0.22141753  0.50344136    -0.12900
C1077       C  0.54061534  0.19799805  0.50431487     0.09700
C1078       C  0.50239454  0.21922692  0.50626771    -0.02900
C1079       C  0.92332644  0.25784364  0.51000711    -0.13000
C1080       C  0.92479888  0.21491953  0.51211105    -0.13000
C1081       C  0.96196908  0.19376931  0.51031137     0.09900
C1082       C  0.96231882  0.15008057  0.50544328    -0.11100
C1083       C  0.50340723  0.13243189  0.50101415    -0.05000
C1084       C  0.54255578  0.15398731  0.50293290    -0.11100
H1085       H  0.60546473  0.28014465  0.50251662     0.07100
H1086       H  0.60625614  0.20664603  0.50258428     0.07100
H1087       H  0.89356481  0.27203210  0.51020391     0.07300
H1088       H  0.89614449  0.19819224  0.51360586     0.07300
H1089       H  0.50007552  0.38321896  0.49899900     0.03700
H1090       H  0.50336908  0.09944108  0.49684410     0.03700
C1091       C  0.96428465  0.07446240  0.09765377    -0.09400
C1092       C  0.93345771  0.06424451  0.11973825     0.06800
C1093       C  0.89831235  0.04496858  0.10699769    -0.03200
C1094       C  0.89638195  0.03568047  0.07323729    -0.07600
C1095       C  0.93020575  0.04281738  0.05175636     0.05900
C1096       C  0.96337683  0.06096628  0.06598733    -0.02600
Br1097     Br  0.00950871  0.06592646  0.04246715    -0.02300
H1098       H  0.99170987  0.09021474  0.10550096     0.09800
H1099       H  0.86788531  0.02455737  0.06377124     0.07800
Br1100     Br  0.85118634  0.50105316  0.11307593    -0.02800
C1101       C  0.96350987  0.08086345  0.40827111    -0.09400
C1102       C  0.92852187  0.06041184  0.42066999     0.06800
C1103       C  0.90077798  0.04447745  0.39713285    -0.03200
C1104       C  0.90547970  0.05454110  0.36441721    -0.07600
C1105       C  0.93882850  0.07786310  0.35311302     0.05900
C1106       C  0.96744066  0.09157275  0.37591158    -0.02600
Br1107     Br  0.01305610  0.12557814  0.36369878    -0.02300
H1108       H  0.98668972  0.09192410  0.42451092     0.09800
H1109       H  0.88556784  0.03981393  0.34712993     0.07800
Br1110     Br  0.86219753  0.00021885  0.40474157    -0.02800
C1111       C  0.55517662  0.09991632  0.11189649    -0.09400
C1112       C  0.57929601  0.07474308  0.13004115     0.06800
C1113       C  0.60800508  0.04944448  0.11347815    -0.03200
C1114       C  0.60645807  0.04474272  0.07963617    -0.07600
C1115       C  0.57777463  0.06627055  0.06139975     0.05900
C1116       C  0.56028713  0.10091522  0.07880249    -0.02600
Br1117     Br  0.57128991  0.15799308  0.07018434    -0.02300
H1118       H  0.53570004  0.12250602  0.12418595     0.09800
H1119       H  0.62826421  0.02448997  0.06760912     0.07800
Br1120     Br  0.64924632  0.51688863  0.13596098    -0.02800
C1121       C  0.56196526  0.01624282  0.38404562    -0.09400
C1122       C  0.57894620  0.04345334  0.36108066     0.06800
C1123       C  0.60253406  0.07640807  0.37244149    -0.03200
C1124       C  0.60559784  0.08223773  0.40561283    -0.07600
C1125       C  0.58193608  0.05845026  0.42825325     0.05900
C1126       C  0.55872015  0.02612848  0.41636853    -0.02600
Br1127     Br  0.51841413  0.99791946  0.44093913    -0.02300
H1128       H  0.54867637  0.98739960  0.37669625     0.09800
H1129       H  0.62553669  0.10692805  0.41395900     0.07800
Br1130     Br  0.63109317  0.11359908  0.34465337    -0.02800
C1131       C  0.60505587  0.40505413  0.10814353    -0.09400
C1132       C  0.57872950  0.43563555  0.11909038     0.06800
C1133       C  0.56312676  0.46301573  0.09594859    -0.03200
C1134       C  0.57349560  0.45846487  0.06350792    -0.07600
C1135       C  0.59215241  0.42326136  0.05177376     0.05900
C1136       C  0.61445166  0.40056034  0.07541196    -0.02600
Br1137     Br  0.66871029  0.37800733  0.07041466    -0.02300
H1138       H  0.62132284  0.38727299  0.12538994     0.09800
H1139       H  0.56511215  0.48188988  0.04704459     0.07800
Br1140     Br  0.51993002  0.50165232  0.10358852    -0.02800
C1141       C  0.60949775  0.43438263  0.39615063    -0.09400
C1142       C  0.58019056  0.42095495  0.41960581     0.06800
C1143       C  0.54320893  0.40604716  0.40711272    -0.03200
C1144       C  0.53757914  0.39995873  0.37438212    -0.07600
C1145       C  0.56676946  0.41216332  0.35151562     0.05900
C1146       C  0.60318910  0.43000650  0.36283731    -0.02600
Br1147     Br  0.64396509  0.45235411  0.33437311    -0.02300
H1148       H  0.63737565  0.44965773  0.40260429     0.09800
H1149       H  0.50873730  0.38709835  0.36664517     0.07800
Br1150     Br  0.49967876  0.38941665  0.43355163    -0.02800
C1151       C  0.89189496  0.41849722  0.06718582    -0.09400
C1152       C  0.92389704  0.42346976  0.04377186     0.06800
C1153       C  0.96236156  0.42683405  0.05449710    -0.03200
C1154       C  0.97107163  0.41812844  0.08637557    -0.07600
C1155       C  0.93957759  0.41322349  0.10996460     0.05900
C1156       C  0.89961081  0.41131748  0.09941489    -0.02600
Br1157     Br  0.85494396  0.39640332  0.12734015    -0.02300
H1158       H  0.86055502  0.41614143  0.06008816     0.09800
H1159       H  0.00212601  0.41871080  0.09361624     0.07800
Br1160     Br  0.99646342  0.45476241  0.02573664    -0.02800
C1161       C  0.93181435  0.43528623  0.40424847    -0.09400
C1162       C  0.90763629  0.40312022  0.41435411     0.06800
C1163       C  0.88724777  0.37855261  0.39030744    -0.03200
C1164       C  0.89353299  0.38613720  0.35723224    -0.07600
C1165       C  0.91882251  0.41873356  0.34740901     0.05900
C1166       C  0.93760969  0.44283786  0.37207693    -0.02600
Br1167     Br  0.46958440  0.48233656  0.36823665    -0.02300
H1168       H  0.94599835  0.45555067  0.42163647     0.09800
H1169       H  0.87728996  0.36785455  0.33950383     0.07800
Br1170     Br  0.84839397  0.33590045  0.40073648    -0.02800
C1171       C  0.83757919  0.02538875  0.50468240    -0.11100
C1172       C  0.86050172  0.48107417  0.00217336    -0.05000
C1173       C  0.83848422  0.44152257  0.00458488    -0.11100
C1174       C  0.79683612  0.44465973  0.01190545     0.09900
C1175       C  0.77714950  0.48405200  0.01479622    -0.02900
C1176       C  0.79478100  0.02446172  0.50987785     0.09700
C1177       C  0.77322681  0.06174063  0.51309288    -0.12900
C1178       C  0.73090710  0.06219796  0.51432220    -0.12900
C1179       C  0.70795911  0.02541157  0.51237438     0.09700
C1180       C  0.72885211  0.98637711  0.51097290    -0.02900
C1181       C  0.77368743  0.40815275  0.01346731    -0.13000
C1182       C  0.73205468  0.40911076  0.01235566    -0.13000
C1183       C  0.71126638  0.44665536  0.01188984     0.09900
C1184       C  0.66932555  0.44567126  0.00618548    -0.11100
C1185       C  0.64462226  0.98734572  0.50590789    -0.05000
C1186       C  0.66507019  0.02745717  0.50964676    -0.11100
H1187       H  0.78903134  0.09130000  0.51396700     0.07100
H1188       H  0.71614348  0.09207828  0.51615434     0.07100
H1189       H  0.78753637  0.37782720  0.01351637     0.07300
H1190       H  0.71633157  0.37954989  0.01098338     0.07300
H1191       H  0.89137390  0.48077379  0.99355705     0.03700
H1192       H  0.61314518  0.98896925  0.50075044     0.03700
C1193       C  0.90646170  0.38936988  0.95138227     0.86200
C1194       C  0.86212637  0.39572039  0.96085626    -0.54000
C1195       C  0.85583464  0.39744344  0.99262174     0.09200
C1196       C  0.88591231  0.37562189  0.50795546     0.20100
C1197       C  0.93049240  0.41771361  0.97802928    -0.54700
C1198       C  0.91430705  0.40991799  0.50987392     0.09300
C1199       C  0.91820346  0.34551675  0.95967186    -0.54200
C1200       C  0.91916106  0.33902012  0.99114124     0.09800
H1201       H  0.84231006  0.41239853  0.94521309     0.14400
H1202       H  0.87411713  0.36047353  0.52984122     0.00100
H1203       H  0.95030184  0.44347134  0.97241750     0.14700
H1204       H  0.93554418  0.32600494  0.94285258     0.14500
O1205       O  0.92662310  0.39780321  0.78774697    -0.75500
O1206       O  0.93101294  0.45951661  0.81168295    -0.54400
C1207       C  0.92554116  0.42118772  0.81364399     0.78200
O1208       O  0.56929066  0.41628478  0.67620643    -0.60100
O1209       O  0.56842409  0.48188197  0.66353661    -0.53200
C1210       C  0.57081181  0.44461228  0.65494946     0.70200
O1211       O  0.57452236  0.41684240  0.79166045    -0.74700
O1212       O  0.51842535  0.43932315  0.81897985    -0.55300
C1213       C  0.55373567  0.42308516  0.81802467     0.76200
O1214       O  0.92594427  0.41060299  0.66943433    -0.59800
O1215       O  0.97843414  0.44383483  0.64480217    -0.53000
C1216       C  0.94745412  0.42021418  0.64383738     0.72800
Zr1217     Zr  0.93453333  0.42222839  0.72984253     2.55100
O1218       O  0.92585710  0.34770191  0.72200087    -0.80400
O1219       O  0.86043621  0.42045505  0.73190896    -0.93800
Zr1220     Zr  0.55710730  0.43062357  0.73492859     2.64700
O1221       O  0.54973130  0.35567506  0.73761366    -0.98800
O1222       O  0.63021678  0.42111793  0.72783805    -0.80800
O1223       O  0.49347471  0.43826443  0.75794769    -0.84200
O1224       O  0.49782462  0.43681194  0.70399061    -2.18900
O1225       O  0.92457327  0.07223223  0.67977012    -0.67600
O1226       O  0.96784105  0.03496966  0.64741817    -0.52100
C1227       C  0.93717416  0.05824511  0.65178044     0.71200
O1228       O  0.57788695  0.06050083  0.80248604    -0.60500
O1229       O  0.53450426  0.01629363  0.82676425    -0.52500
C1230       C  0.56438405  0.04102873  0.82751748     0.73000
O1231       O  0.58198338  0.06776148  0.68823184    -0.71900
O1232       O  0.52436020  0.05585796  0.66139383    -0.50600
C1233       C  0.56119992  0.06796238  0.66229802     0.74400
O1234       O  0.93275867  0.07679936  0.79473721    -0.67200
O1235       O  0.98983982  0.05390557  0.81575964    -0.54400
C1236       C  0.95551406  0.07107245  0.81910995     0.72800
Zr1237     Zr  0.94982618  0.06443847  0.73620004     2.77500
O1238       O  0.96120667  0.13893251  0.73312105    -0.98000
O1239       O  0.87847960  0.08261060  0.74426529    -0.78800
Zr1240     Zr  0.55703363  0.05603234  0.74446528     2.70100
O1241       O  0.54774375  0.13048297  0.75153622    -0.80000
O1242       O  0.62952018  0.07251671  0.74573572    -0.99100
Zr1243     Zr  0.49316534  0.49583651  0.78965150     2.21500
Zr1244     Zr  0.50689545  0.50614418  0.68610069     2.11100
O1245       O  0.49524428  0.06091228  0.71504400    -2.47800
O1246       O  0.49251744  0.04778328  0.76535246    -0.79800
O1247       O  0.93896752  0.48854544  0.71088664    -0.72000
O1248       O  0.56050922  0.49124209  0.76801886    -2.33000
O1249       O  0.92602527  0.48486061  0.76077736    -2.29200
O1250       O  0.56167409  0.49657084  0.71600980    -0.73800
H1251       H  0.49717146  0.41464199  0.68769768     0.78200
H1252       H  0.58204086  0.48810470  0.78295501     0.79300
H1253       H  0.49385665  0.08669931  0.70394143     0.81500
H1254       H  0.89948955  0.48519806  0.77139461     0.79100
H1255       H  0.64142451  0.42756236  0.74921918     0.42200
H1256       H  0.64263631  0.05155001  0.73127825     0.41100
H1257       H  0.56918541  0.13931312  0.76659032     0.40800
H1258       H  0.96424754  0.14410510  0.70991139     0.38800
H1259       H  0.86330549  0.05816231  0.73593461     0.41900
H1260       H  0.85285961  0.40127286  0.71411140     0.36700
H1261       H  0.95299407  0.33611122  0.72614746     0.42800
H1262       H  0.52600087  0.35141526  0.75224265     0.39200
H1263       H  0.93458588  0.15128384  0.73933077     0.44100
H1264       H  0.85226575  0.44812735  0.72476039     0.42800
H1265       H  0.53993159  0.34699072  0.71620844     0.43000
H1266       H  0.63252114  0.09893982  0.73432240     0.43300
C1267       C  0.91921989  0.06617911  0.95639558     0.86200
C1268       C  0.92744135  0.11175555  0.96405052    -0.54000
C1269       C  0.92571600  0.12246891  0.99497618     0.09200
C1270       C  0.89511128  0.09187394  0.51482982     0.20100
C1271       C  0.93984236  0.04169027  0.98564419    -0.54700
C1272       C  0.92436230  0.05835879  0.51745416     0.09300
C1273       C  0.87343377  0.06323542  0.96310871    -0.54200
C1274       C  0.86265636  0.06423317  0.99416713     0.09800
H1275       H  0.94281262  0.13228331  0.94735636     0.14400
H1276       H  0.88275592  0.10505096  0.53789324     0.00100
H1277       H  0.96204943  0.01779090  0.98170417     0.14700
H1278       H  0.85119468  0.05335664  0.94609871     0.14500
C1279       C  0.59428685  0.40683249  0.95412036     0.86200
C1280       C  0.58551374  0.36033942  0.95702723    -0.54000
C1281       C  0.58439210  0.34708336  0.98679788     0.09200
C1282       C  0.61268150  0.38097929  0.50847044     0.20100
C1283       C  0.57391820  0.42783724  0.98714911    -0.54700
C1284       C  0.58665627  0.41518968  0.51688874     0.09300
C1285       C  0.63964573  0.41106100  0.96047820    -0.54200
C1286       C  0.64910828  0.40442176  0.99097888     0.09800
H1287       H  0.57129325  0.34171462  0.93834614     0.14400
H1288       H  0.62493157  0.36073382  0.52630630     0.00100
H1289       H  0.55771154  0.45639423  0.98727285     0.14700
H1290       H  0.65900349  0.43221014  0.94740999     0.14500
C1291       C  0.59200607  0.06383639  0.96360341     0.86200
C1292       C  0.63664999  0.05672950  0.96865647    -0.54000
C1293       C  0.64863757  0.06378048  0.99843168     0.09200
C1294       C  0.61258334  0.10108002  0.51634630     0.20100
C1295       C  0.56963922  0.04677093  0.99681595    -0.54700
C1296       C  0.58088658  0.07196764  0.52544272     0.09300
C1297       C  0.58548880  0.10973439  0.96587436    -0.54200
C1298       C  0.58890155  0.12599020  0.99487922     0.09800
H1299       H  0.65329898  0.03505816  0.95279880     0.14400
H1300       H  0.62767853  0.11783266  0.53639802     0.00100
H1301       H  0.54505070  0.02453542  0.99798558     0.14700
H1302       H  0.56678319  0.12474334  0.94821800     0.14500
C1303       C  0.54326748  0.32414305  0.99743563    -0.11100
C1304       C  0.50316668  0.34375965  0.99795530    -0.05000
C1305       C  0.96124742  0.32105316  0.00239671    -0.11100
C1306       C  0.96390780  0.27818135  0.00867833     0.09900
C1307       C  0.50527024  0.25739916  0.00241141    -0.02900
C1308       C  0.54277217  0.28035733  0.99988650     0.09700
C1309       C  0.57961479  0.25860975  0.99892914    -0.12900
C1310       C  0.58043164  0.21573319  0.99997886    -0.12900
C1311       C  0.54445271  0.19209369  0.00205211     0.09700
C1312       C  0.50613780  0.21297000  0.00329293    -0.02900
C1313       C  0.92824408  0.25425612  0.01263218    -0.13000
C1314       C  0.92958653  0.21122063  0.01374464    -0.13000
C1315       C  0.96659444  0.18999279  0.01038632     0.09900
C1316       C  0.96658647  0.14646505  0.00419978    -0.11100
C1317       C  0.50761967  0.12619829  0.00171495    -0.05000
C1318       C  0.54665150  0.14819340  0.00246669    -0.11100
H1319       H  0.60865061  0.27460004  0.99742887     0.07100
H1320       H  0.61005830  0.20126271  0.99926899     0.07100
H1321       H  0.89855269  0.26861538  0.01389636     0.07300
H1322       H  0.90092593  0.19454906  0.01555280     0.07300
H1323       H  0.50231584  0.37688542  0.99567313     0.03700
H1324       H  0.50764015  0.09304730  0.99890532     0.03700
C1325       C  0.94871956  0.08961337  0.60125061    -0.09400
C1326       C  0.91998914  0.06985749  0.62062143     0.06800
C1327       C  0.89236073  0.04307364  0.60482746    -0.03200
C1328       C  0.89681897  0.03366961  0.57139216    -0.07600
C1329       C  0.93025118  0.04877239  0.55272778     0.05900
C1330       C  0.95564948  0.07598948  0.56963277    -0.02600
Br1331     Br  0.00738153  0.08262960  0.55505600    -0.02300
H1332       H  0.97194062  0.10867421  0.61262217     0.09800
H1333       H  0.87305588  0.01596788  0.55998204     0.07800
Br1334     Br  0.84949096  0.49768145  0.61306758    -0.02800
C1335       C  0.96681197  0.07833145  0.90826393    -0.09400
C1336       C  0.93138874  0.05811877  0.92020934     0.06800
C1337       C  0.90343184  0.04349672  0.89653721    -0.03200
C1338       C  0.90797167  0.05495811  0.86419190    -0.07600
C1339       C  0.94189790  0.07768079  0.85325165     0.05900
C1340       C  0.97098873  0.08997543  0.87614102    -0.02600
Br1341     Br  0.01764284  0.12288826  0.86441664    -0.02300
H1342       H  0.99006829  0.08855148  0.92472905     0.09800
H1343       H  0.88775737  0.04113071  0.84670471     0.07800
Br1344     Br  0.86562922  0.99837127  0.90336412    -0.02800
C1345       C  0.55426581  0.10459916  0.61291485    -0.09400
C1346       C  0.57810724  0.07838425  0.63041789     0.06800
C1347       C  0.60549779  0.05230167  0.61314664    -0.03200
C1348       C  0.60309585  0.04838729  0.57931131    -0.07600
C1349       C  0.57471149  0.07116811  0.56174225     0.05900
C1350       C  0.55843561  0.10589849  0.57976650    -0.02600
Br1351     Br  0.56924467  0.16287296  0.57089617    -0.02300
H1352       H  0.53561196  0.12749130  0.62568440     0.09800
H1353       H  0.62396542  0.02762747  0.56677333     0.07800
Br1354     Br  0.65721396  0.50449474  0.63056659    -0.02800
C1355       C  0.56443780  0.01550319  0.88271752    -0.09400
C1356       C  0.58067716  0.04421739  0.86053053     0.06800
C1357       C  0.60562079  0.07572343  0.87245656    -0.03200
C1358       C  0.61065370  0.07880430  0.90561897    -0.07600
C1359       C  0.58710439  0.05425608  0.92787206     0.05900
C1360       C  0.56282317  0.02316844  0.91540040    -0.02600
Br1361     Br  0.52338805  0.99376926  0.93995850    -0.02300
H1362       H  0.55028226  0.98742813  0.87450652     0.09800
H1363       H  0.63132791  0.10259286  0.91439119     0.07800
Br1364     Br  0.63266979  0.11500194  0.84550182    -0.02800
C1365       C  0.59861915  0.40436208  0.60827749    -0.09400
C1366       C  0.57501841  0.43678167  0.61985059     0.06800
C1367       C  0.56232576  0.46639207  0.59746284    -0.03200
C1368       C  0.57100734  0.46198922  0.56482727    -0.07600
C1369       C  0.58914275  0.42686885  0.55259571     0.05900
C1370       C  0.60982845  0.40227818  0.57585720    -0.02600
Br1371     Br  0.66611449  0.38546972  0.57243509    -0.02300
H1372       H  0.61364607  0.38491339  0.62514984     0.09800
H1373       H  0.56329148  0.48628608  0.54887915     0.07800
Br1374     Br  0.52755232  0.51092593  0.60724860    -0.02800
C1375       C  0.61341972  0.43176554  0.89540617    -0.09400
C1376       C  0.58387234  0.41790170  0.91855207     0.06800
C1377       C  0.54689447  0.40381129  0.90548577    -0.03200
C1378       C  0.54067383  0.40013087  0.87267308    -0.07600
C1379       C  0.56953571  0.41370407  0.85022766     0.05900
C1380       C  0.60641611  0.43007297  0.86199084    -0.02600
Br1381     Br  0.64596886  0.45545557  0.83407360    -0.02300
H1382       H  0.64197932  0.44533884  0.90221225     0.09800
H1383       H  0.51144779  0.38865615  0.86455155     0.07800
Br1384     Br  0.50372549  0.38562216  0.93104053    -0.02800
C1385       C  0.88767536  0.41632793  0.56785348    -0.09400
C1386       C  0.91914445  0.42367723  0.54430572     0.06800
C1387       C  0.95749222  0.42828164  0.55476134    -0.03200
C1388       C  0.96713851  0.41673272  0.58583279    -0.07600
C1389       C  0.93655098  0.40973502  0.60985131     0.05900
C1390       C  0.89621363  0.40803105  0.59990320    -0.02600
Br1391     Br  0.85226052  0.39217188  0.62824344    -0.02300
H1392       H  0.85619861  0.41408379  0.56094768     0.09800
H1393       H  0.99838437  0.41625679  0.59219773     0.07800
Br1394     Br  0.98839298  0.46353323  0.52844579    -0.02800
C1395       C  0.93286747  0.42759277  0.90425793    -0.09400
C1396       C  0.91052961  0.39458882  0.91508089     0.06800
C1397       C  0.89200639  0.36756298  0.89159273    -0.03200
C1398       C  0.89803282  0.37419413  0.85829698    -0.07600
C1399       C  0.92195157  0.40757682  0.84785003     0.05900
C1400       C  0.93959719  0.43330826  0.87207528    -0.02600
Br1401     Br  0.47384580  0.48953999  0.86857173    -0.02300
H1402       H  0.94592728  0.44947469  0.92108858     0.09800
H1403       H  0.88299876  0.35429202  0.84090353     0.07800
Br1404     Br  0.85676038  0.32225193  0.90305070    -0.02800
C1405       C  0.84334034  0.52218762  0.00878673    -0.11100
C1406       C  0.85650352  0.98520094  0.49944636    -0.05000
C1407       C  0.83575913  0.94518359  0.50099200    -0.11100
C1408       C  0.79325981  0.94700759  0.50633206     0.09900
C1409       C  0.77255412  0.98594004  0.50986459    -0.02900
C1410       C  0.80025921  0.52216232  0.01441132     0.09700
C1411       C  0.77901514  0.55974579  0.01723792    -0.12900
C1412       C  0.73647533  0.56075178  0.01781387    -0.12900
C1413       C  0.71298688  0.52423635  0.01555058     0.09700
C1414       C  0.73346932  0.48505614  0.01518730    -0.02900
C1415       C  0.77056503  0.91011689  0.50606744    -0.13000
C1416       C  0.72857288  0.91054778  0.50627539    -0.13000
C1417       C  0.70691494  0.94783125  0.50794176     0.09900
C1418       C  0.66416136  0.94663439  0.50514262    -0.11100
C1419       C  0.64995268  0.48626468  0.00624628    -0.05000
C1420       C  0.67016439  0.52635660  0.01133599    -0.11100
H1421       H  0.79527188  0.58905655  0.01798081     0.07100
H1422       H  0.72198741  0.59079395  0.01904405     0.07100
H1423       H  0.78510023  0.88011938  0.50453650     0.07300
H1424       H  0.71317796  0.88081320  0.50476054     0.07300
H1425       H  0.88771851  0.98578517  0.49202796     0.03700
H1426       H  0.61908939  0.48745297  0.99912224     0.03700
C1427       C  0.90857899  0.89779755  0.44857739     0.86200
C1428       C  0.86401797  0.90289975  0.45765302    -0.54000
C1429       C  0.85649637  0.90274341  0.48938826     0.09200
C1430       C  0.89798289  0.87656729  0.00736644     0.20100
C1431       C  0.93154306  0.92629054  0.47583882    -0.54700
C1432       C  0.92411507  0.91282841  0.00720154     0.09300
C1433       C  0.91976797  0.85374446  0.45649185    -0.54200
C1434       C  0.92157221  0.84676070  0.48777968     0.09800
H1435       H  0.84403632  0.91919676  0.44186335     0.14400
H1436       H  0.88792412  0.86427730  0.03085352     0.00100
H1437       H  0.95034776  0.95292668  0.47082199     0.14700
H1438       H  0.93439853  0.83293626  0.43910026     0.14500
O1439       O  0.92549830  0.91586430  0.28403721    -0.75500
O1440       O  0.93597249  0.97508179  0.31028183    -0.54400
C1441       C  0.92704081  0.93731509  0.31098711     0.78200
O1442       O  0.57689462  0.91672814  0.17644984    -0.60100
O1443       O  0.56342965  0.98043256  0.16191758    -0.53200
C1444       C  0.57381468  0.94429578  0.15457449     0.70200
O1445       O  0.57849523  0.91476275  0.29360860    -0.74700
O1446       O  0.51847909  0.92916222  0.31865987    -0.55300
C1447       C  0.55535304  0.91732548  0.31912262     0.76200
O1448       O  0.92842699  0.93230161  0.16652887    -0.59800
O1449       O  0.97591020  0.97304249  0.14199996    -0.53000
C1450       C  0.94694999  0.94675022  0.14113901     0.72800
Zr1451     Zr  0.93713022  0.94247666  0.22640666     2.55100
O1452       O  0.92040301  0.86930659  0.21885518    -0.80400
O1453       O  0.86396559  0.95322204  0.22342977    -0.93800
Zr1454     Zr  0.56263986  0.92638548  0.23598049     2.64700
O1455       O  0.56620991  0.85107455  0.23684796    -0.98800
O1456       O  0.63655829  0.92407539  0.23064816    -0.80800
O1457       O  0.49870986  0.92579855  0.25943676    -0.84200
O1458       O  0.50259204  0.92285499  0.20621223    -2.18900
O1459       O  0.91960271  0.57514066  0.17832781    -0.67600
O1460       O  0.93124627  0.51100908  0.16158065    -0.52100
C1461       C  0.92083915  0.54719434  0.15566138     0.71200
O1462       O  0.57239463  0.55865788  0.30412197    -0.60500
O1463       O  0.53557276  0.50809143  0.32756544    -0.52500
C1464       C  0.56166960  0.53701817  0.32888717     0.73000
O1465       O  0.58336459  0.56336253  0.18928927    -0.71900
O1466       O  0.52691156  0.55153745  0.16067682    -0.50600
C1467       C  0.56377247  0.56345625  0.16273671     0.74400
O1468       O  0.91500014  0.57358904  0.29538483    -0.67200
O1469       O  0.97594506  0.55852906  0.31351423    -0.54400
C1470       C  0.94032283  0.57180252  0.31857611     0.72800
Zr1471     Zr  0.93087887  0.56189903  0.23654270     2.77500
O1472       O  0.92857887  0.63734455  0.23961911    -0.98000
O1473       O  0.85732913  0.57049287  0.23633265    -0.78800
Zr1474     Zr  0.55610763  0.55273539  0.24507897     2.70100
O1475       O  0.54696018  0.62739982  0.25024359    -0.80000
O1476       O  0.62812577  0.56909294  0.25098771    -0.99100
Zr1477     Zr  0.49163077  0.98443941  0.28956533     2.21500
Zr1478     Zr  0.50028503  0.99194888  0.18681739     2.11100
O1479       O  0.49577482  0.55813781  0.21414078    -2.47800
O1480       O  0.49143370  0.54514321  0.26542746    -0.79800
O1481       O  0.95260224  0.00706852  0.20693328    -0.72000
O1482       O  0.55942242  0.98769834  0.26804248    -2.33000
O1483       O  0.93594307  0.00356750  0.25954636    -2.29200
O1484       O  0.55646783  0.99149193  0.21660512    -0.73800
H1485       H  0.50540600  0.90006631  0.19131960     0.78200
H1486       H  0.58170960  0.98684829  0.28263317     0.79300
H1487       H  0.49520706  0.58365553  0.20262816     0.81500
H1488       H  0.90950729  0.00699028  0.26995884     0.79100
H1489       H  0.64627082  0.92761297  0.25283121     0.42200
H1490       H  0.64244258  0.54359792  0.24359824     0.41100
H1491       H  0.56276741  0.63869814  0.23192395     0.40800
H1492       H  0.93202272  0.64458423  0.26258120     0.38800
H1493       H  0.84786983  0.55054601  0.21967157     0.41900
H1494       H  0.86112524  0.97426562  0.20677454     0.36700
H1495       H  0.94446696  0.85745939  0.20734122     0.42800
H1496       H  0.58774456  0.84532869  0.25232403     0.39200
H1497       H  0.95422058  0.64664293  0.22907181     0.44100
H1498       H  0.85609177  0.96780116  0.24373889     0.42800
H1499       H  0.54058451  0.84242450  0.24776612     0.43000
H1500       H  0.63459652  0.58964270  0.23437476     0.43300
C1501       C  0.91611424  0.56840355  0.45736973     0.86200
C1502       C  0.92245955  0.61477435  0.46287979    -0.54000
C1503       C  0.92241567  0.62737393  0.49340278     0.09200
C1504       C  0.90334842  0.59090669  0.01440307     0.20100
C1505       C  0.94050671  0.54685022  0.48650947    -0.54700
C1506       C  0.93447544  0.55948717  0.01795439     0.09300
C1507       C  0.87137052  0.56382776  0.46660496    -0.54200
C1508       C  0.86280417  0.56704441  0.49789712     0.09800
H1509       H  0.93565549  0.63483331  0.44478381     0.14400
H1510       H  0.89250826  0.60645329  0.03703866     0.00100
H1511       H  0.96205296  0.52212503  0.48252534     0.14700
H1512       H  0.84806426  0.55226312  0.45125575     0.14500
C1513       C  0.58641877  0.90603929  0.45680783     0.86200
C1514       C  0.57631329  0.86030898  0.46213903    -0.54000
C1515       C  0.57528486  0.84956916  0.49249844     0.09200
C1516       C  0.61177801  0.87370572  0.00979409     0.20100
C1517       C  0.56773090  0.93048414  0.48890224    -0.54700
C1518       C  0.58742500  0.90928972  0.01757355     0.09300
C1519       C  0.63228455  0.90807849  0.46231024    -0.54200
C1520       C  0.64220792  0.90452780  0.49296409     0.09800
H1521       H  0.56361594  0.83938851  0.44430189     0.14400
H1522       H  0.62140225  0.85342566  0.02864358     0.00100
H1523       H  0.55279677  0.95967312  0.48796363     0.14700
H1524       H  0.65384445  0.92345509  0.44668809     0.14500
C1525       C  0.59159657  0.57048186  0.46460910     0.86200
C1526       C  0.63743064  0.56993425  0.46787777    -0.54000
C1527       C  0.64948406  0.57632616  0.49760154     0.09200
C1528       C  0.61665207  0.59885914  0.01788691     0.20100
C1529       C  0.57386881  0.55211587  0.49914844    -0.54700
C1530       C  0.58582602  0.56868437  0.02644989     0.09300
C1531       C  0.57930057  0.61495207  0.46625952    -0.54200
C1532       C  0.58258454  0.63284510  0.49472594     0.09800
H1533       H  0.65563928  0.55046976  0.45137795     0.14400
H1534       H  0.63117714  0.61581250  0.03809343     0.00100
H1535       H  0.55416193  0.52561720  0.50114694     0.14700
H1536       H  0.55817327  0.62687775  0.44890212     0.14500
C1537       C  0.53403661  0.82810368  0.50461288    -0.11100
C1538       C  0.49389990  0.84734858  0.50309122    -0.05000
C1539       C  0.96351405  0.82665848  0.49751767    -0.11100
C1540       C  0.96508084  0.78313419  0.50044115     0.09900
C1541       C  0.49627650  0.76150496  0.51154779    -0.02900
C1542       C  0.53363736  0.78483685  0.50960666     0.09700
C1543       C  0.57070793  0.76375605  0.51086918    -0.12900
C1544       C  0.57210878  0.72092349  0.51033336    -0.12900
C1545       C  0.53648962  0.69685475  0.50877146     0.09700
C1546       C  0.49765814  0.71691934  0.51131210    -0.02900
C1547       C  0.92870214  0.76039586  0.50427784    -0.13000
C1548       C  0.92854943  0.71742497  0.50447761    -0.13000
C1549       C  0.96483814  0.69500502  0.50148591     0.09900
C1550       C  0.96356376  0.65112797  0.49968009    -0.11100
C1551       C  0.50046002  0.63191503  0.49912495    -0.05000
C1552       C  0.53953773  0.65349798  0.50353889    -0.11100
H1553       H  0.59952144  0.78024066  0.51122332     0.07100
H1554       H  0.60189328  0.70680184  0.51020215     0.07100
H1555       H  0.89957191  0.77571875  0.50690082     0.07300
H1556       H  0.89939734  0.70183020  0.50703812     0.07300
H1557       H  0.49319582  0.87966439  0.49725658     0.03700
H1558       H  0.50138926  0.60077228  0.48900765     0.03700
C1559       C  0.94793920  0.58259256  0.10840928    -0.09400
C1560       C  0.91957217  0.55547724  0.12102723     0.06800
C1561       C  0.90087980  0.52722928  0.09981732    -0.03200
C1562       C  0.91410435  0.52327352  0.06749146    -0.07600
C1563       C  0.94158106  0.55162531  0.05334669     0.05900
C1564       C  0.95564022  0.58387249  0.07533071    -0.02600
Br1565     Br  0.97371261  0.63824819  0.06638199    -0.02300
H1566       H  0.96240890  0.60480370  0.12452731     0.09800
H1567       H  0.89801933  0.50174466  0.05248082     0.07800
Br1568     Br  0.85176151  0.03476940  0.13402563    -0.02800
C1569       C  0.95915517  0.57958739  0.40680068    -0.09400
C1570       C  0.92505155  0.55916816  0.42071355     0.06800
C1571       C  0.89498029  0.54433901  0.39855428    -0.03200
C1572       C  0.89671632  0.55544783  0.36602258    -0.07600
C1573       C  0.92935394  0.57836337  0.35329081     0.05900
C1574       C  0.96007384  0.59149435  0.37462336    -0.02600
Br1575     Br  0.00448936  0.62621553  0.36074119    -0.02300
H1576       H  0.98357124  0.59037575  0.42200957     0.09800
H1577       H  0.87514751  0.54139602  0.34968303     0.07800
Br1578     Br  0.85721196  0.49959151  0.40679856    -0.02800
C1579       C  0.55861866  0.60075775  0.11385169    -0.09400
C1580       C  0.58196650  0.57425012  0.13140655     0.06800
C1581       C  0.60943344  0.54808655  0.11425527    -0.03200
C1582       C  0.60740492  0.54432702  0.08035798    -0.07600
C1583       C  0.57937321  0.56745073  0.06268811     0.05900
C1584       C  0.56299823  0.60212136  0.08078501    -0.02600
Br1585     Br  0.57314961  0.65931926  0.07237126    -0.02300
H1586       H  0.53976737  0.62355002  0.12656679     0.09800
H1587       H  0.62828741  0.52351709  0.06789386     0.07800
Br1588     Br  0.64898352  0.02081997  0.13593450    -0.02800
C1589       C  0.56059456  0.51699633  0.38594062    -0.09400
C1590       C  0.57644564  0.54389795  0.36224776     0.06800
C1591       C  0.59984120  0.57759274  0.37274037    -0.03200
C1592       C  0.60599831  0.58300040  0.40563382    -0.07600
C1593       C  0.58525390  0.55839105  0.42932405     0.05900
C1594       C  0.56026804  0.52678292  0.41842444    -0.02600
Br1595     Br  0.51806939  0.50312035  0.44400801    -0.02300
H1596       H  0.54579166  0.48865848  0.37934956     0.09800
H1597       H  0.62531209  0.60868716  0.41306907     0.07800
Br1598     Br  0.62242366  0.61792446  0.34431639    -0.02800
C1599       C  0.60833044  0.90749831  0.10876777    -0.09400
C1600       C  0.58052878  0.93675186  0.11963515     0.06800
C1601       C  0.56349720  0.96313317  0.09648490    -0.03200
C1602       C  0.57389543  0.95881366  0.06409621    -0.07600
C1603       C  0.59332576  0.92405960  0.05251314     0.05900
C1604       C  0.61697984  0.90248799  0.07598464    -0.02600
Br1605     Br  0.67027114  0.87779901  0.06965161    -0.02300
H1606       H  0.62553612  0.89061626  0.12598496     0.09800
H1607       H  0.56456167  0.98170519  0.04753279     0.07800
Br1608     Br  0.51905758  0.00017670  0.10408662    -0.02800
C1609       C  0.60573454  0.93348464  0.39955226    -0.09400
C1610       C  0.57627182  0.91590152  0.42103813     0.06800
C1611       C  0.54235557  0.89690043  0.40598462    -0.03200
C1612       C  0.54015348  0.89220828  0.37280587    -0.07600
C1613       C  0.56950432  0.90889048  0.35199189     0.05900
C1614       C  0.60310138  0.92937910  0.36579981    -0.02600
Br1615     Br  0.64358673  0.95679529  0.33995626    -0.02300
H1616       H  0.63027935  0.95261754  0.40831800     0.09800
H1617       H  0.51321369  0.87755063  0.36292978     0.07800
Br1618     Br  0.49711781  0.87483017  0.42850028    -0.02800
C1619       C  0.89232867  0.93022680  0.06252256    -0.09400
C1620       C  0.92567041  0.93368227  0.03992777     0.06800
C1621       C  0.96298855  0.94123925  0.05215282    -0.03200
C1622       C  0.96965573  0.93688424  0.08470464    -0.07600
C1623       C  0.93734573  0.93430196  0.10747251     0.05900
C1624       C  0.89790174  0.93100592  0.09582506    -0.02600
Br1625     Br  0.85138247  0.92502150  0.12383743    -0.02300
H1626       H  0.86184500  0.92388892  0.05474365     0.09800
H1627       H  0.00009036  0.93776871  0.09274393     0.07800
Br1628     Br  0.99954607  0.96772723  0.02475483    -0.02800
C1629       C  0.93854121  0.93575003  0.40202758    -0.09400
C1630       C  0.91380768  0.90404752  0.41218685     0.06800
C1631       C  0.89418109  0.87913102  0.38789130    -0.03200
C1632       C  0.89922593  0.88807053  0.35475199    -0.07600
C1633       C  0.92369567  0.92151644  0.34498584     0.05900
C1634       C  0.94384487  0.94409577  0.36992370    -0.02600
Br1635     Br  0.47193502  0.98139927  0.36984616    -0.02300
H1636       H  0.95393518  0.95508769  0.41931193     0.09800
H1637       H  0.88315759  0.86970804  0.33697664     0.07800
Br1638     Br  0.85951084  0.83288067  0.39809922    -0.02800
C1639       C  0.83976445  0.52625165  0.50891789    -0.11100
C1640       C  0.86002105  0.98177069  0.99698243    -0.05000
C1641       C  0.84002958  0.94142956  0.99954171    -0.11100
C1642       C  0.79779179  0.94286740  0.00615649     0.09900
C1643       C  0.77684057  0.98162385  0.01038621    -0.02900
C1644       C  0.79726512  0.52668276  0.51599135     0.09700
C1645       C  0.77663195  0.56450519  0.51989257    -0.12900
C1646       C  0.73422108  0.56613214  0.51982246    -0.12900
C1647       C  0.71056846  0.53001984  0.51584571     0.09700
C1648       C  0.73049918  0.49044787  0.51619995    -0.02900
C1649       C  0.77545438  0.90578303  0.00651328    -0.13000
C1650       C  0.73345933  0.90590120  0.00746543    -0.13000
C1651       C  0.71162142  0.94306832  0.00899002     0.09900
C1652       C  0.66908449  0.94175289  0.00543016    -0.11100
C1653       C  0.64883554  0.49262669  0.50180862    -0.05000
C1654       C  0.66861514  0.53299950  0.50863986    -0.11100
H1655       H  0.79327305  0.59356116  0.52136253     0.07100
H1656       H  0.72011727  0.59635804  0.52125608     0.07100
H1657       H  0.79018852  0.87590784  0.00464190     0.07300
H1658       H  0.71820123  0.87608114  0.00615531     0.07300
H1659       H  0.89057980  0.98233913  0.98797475     0.03700
H1660       H  0.61988692  0.49307652  0.49091807     0.03700
C1661       C  0.91380911  0.89264850  0.94851775     0.86200
C1662       C  0.86904701  0.89740243  0.95712483    -0.54000
C1663       C  0.86125344  0.89865551  0.98886356     0.09200
C1664       C  0.89308457  0.87964940  0.50708877     0.20100
C1665       C  0.93602560  0.92245996  0.97528547    -0.54700
C1666       C  0.91983532  0.91555942  0.50762678     0.09300
C1667       C  0.92568214  0.84916833  0.95744861    -0.54200
C1668       C  0.92728072  0.84323805  0.98889538     0.09800
H1669       H  0.84911482  0.91286498  0.94079736     0.14400
H1670       H  0.88305210  0.86617232  0.53015515     0.00100
H1671       H  0.95462946  0.94906359  0.96985119     0.14700
H1672       H  0.94114382  0.82822036  0.94060123     0.14500
O1673       O  0.92830922  0.91042143  0.78459582    -0.75500
O1674       O  0.93638813  0.97031696  0.81029139    -0.54400
C1675       C  0.92931629  0.93218086  0.81131583     0.78200
O1676       O  0.57417780  0.91950394  0.67636886    -0.60100
O1677       O  0.56293991  0.98414689  0.66366209    -0.53200
C1678       C  0.57116077  0.94787381  0.65519758     0.70200
O1679       O  0.57922104  0.91628112  0.79283481    -0.74700
O1680       O  0.52253219  0.93621070  0.82087457    -0.55300
C1681       C  0.55823236  0.92099363  0.81933890     0.76200
O1682       O  0.92490792  0.93132039  0.66765602    -0.59800
O1683       O  0.98009813  0.96050979  0.64347512    -0.53000
C1684       C  0.94672975  0.94050051  0.64225968     0.72800
Zr1685     Zr  0.93732426  0.93812637  0.72750278     2.55100
O1686       O  0.92126451  0.86534519  0.71696193    -0.80400
O1687       O  0.86363246  0.94593795  0.73046956    -0.93800
Zr1688     Zr  0.56142314  0.92912375  0.73580686     2.64700
O1689       O  0.56476969  0.85377499  0.73587040    -0.98800
O1690       O  0.63532272  0.92849930  0.73014398    -0.80800
O1691       O  0.49778716  0.92854909  0.75972351    -0.84200
O1692       O  0.50103297  0.92643900  0.70621827    -2.18900
O1693       O  0.91926782  0.56542937  0.67940654    -0.67600
O1694       O  0.93610270  0.50437899  0.65721893    -0.52100
C1695       C  0.92221224  0.54021375  0.65485220     0.71200
O1696       O  0.58490546  0.56090056  0.80374410    -0.60500
O1697       O  0.53918620  0.51821720  0.82709435    -0.52500
C1698       C  0.57001616  0.54167588  0.82840816     0.73000
O1699       O  0.60142777  0.56315109  0.69069800    -0.71900
O1700       O  0.54534981  0.55995667  0.66136428    -0.50600
C1701       C  0.58347561  0.56576717  0.66363765     0.74400
O1702       O  0.91584267  0.56246663  0.79628242    -0.67200
O1703       O  0.97673394  0.54661485  0.81446199    -0.54400
C1704       C  0.94113356  0.56003557  0.81943661     0.72800
Zr1705     Zr  0.93142868  0.55095132  0.73745441     2.77500
O1706       O  0.92827620  0.62631173  0.74051503    -0.98000
O1707       O  0.85749827  0.55585167  0.73784479    -0.78800
Zr1708     Zr  0.56775926  0.55720307  0.74503255     2.70100
O1709       O  0.56942695  0.63263858  0.74771176    -0.80000
O1710       O  0.64082388  0.56309584  0.75309120    -0.99100
Zr1711     Zr  0.49122077  0.98714246  0.78999439     2.21500
Zr1712     Zr  0.49912938  0.99574684  0.68697627     2.11100
O1713       O  0.50786232  0.57039536  0.71473732    -2.47800
O1714       O  0.50167489  0.55617153  0.76468096    -0.79800
O1715       O  0.95238933  0.00296929  0.70839475    -0.72000
O1716       O  0.55856027  0.99007081  0.76811553    -2.33000
O1717       O  0.93595637  0.99986682  0.75996651    -2.29200
O1718       O  0.55561576  0.99433679  0.71639807    -0.73800
H1719       H  0.50335141  0.90359294  0.69134844     0.78200
H1720       H  0.58060430  0.98892573  0.78291352     0.79300
H1721       H  0.51030565  0.59513350  0.70228977     0.81500
H1722       H  0.90970883  0.00330269  0.77060365     0.79100
H1723       H  0.64446346  0.95234852  0.74358771     0.42200
H1724       H  0.65333232  0.54375067  0.73700582     0.41100
H1725       H  0.57444703  0.63959312  0.77051817     0.40800
H1726       H  0.95137805  0.63472356  0.75409887     0.38800
H1727       H  0.84792780  0.52731892  0.73284631     0.41900
H1728       H  0.85282637  0.91934806  0.72173205     0.36700
H1729       H  0.94494469  0.85469414  0.70428110     0.42800
H1730       H  0.54354760  0.84543739  0.75171011     0.39200
H1731       H  0.93640248  0.63529077  0.71876783     0.44100
H1732       H  0.85769352  0.96636120  0.71392843     0.42800
H1733       H  0.55387612  0.84475375  0.71489515     0.43000
H1734       H  0.64830965  0.59106197  0.74558288     0.43300
C1735       C  0.92047391  0.56164259  0.95759851     0.86200
C1736       C  0.92864668  0.60802095  0.96144942    -0.54000
C1737       C  0.92864917  0.62252137  0.99150838     0.09200
C1738       C  0.89826696  0.59413843  0.51522894     0.20100
C1739       C  0.94447840  0.54126041  0.98737620    -0.54700
C1740       C  0.92985496  0.56290025  0.51776506     0.09300
C1741       C  0.87554011  0.55948175  0.96678263    -0.54200
C1742       C  0.86704130  0.56325272  0.99792069     0.09800
H1743       H  0.94259204  0.62655958  0.94272137     0.14400
H1744       H  0.88712148  0.60815927  0.53834772     0.00100
H1745       H  0.96537259  0.51582199  0.98429016     0.14700
H1746       H  0.85167560  0.54934069  0.95135964     0.14500
C1747       C  0.59264249  0.90334447  0.95566053     0.86200
C1748       C  0.58210365  0.85745864  0.95972572    -0.54000
C1749       C  0.58093925  0.84556904  0.98982768     0.09200
C1750       C  0.60634440  0.87877479  0.51155857     0.20100
C1751       C  0.57352644  0.92637842  0.98820402    -0.54700
C1752       C  0.58195901  0.91464520  0.51853919     0.09300
C1753       C  0.63840518  0.90484284  0.96142131    -0.54200
C1754       C  0.64787335  0.89999138  0.99207432     0.09800
H1755       H  0.56839677  0.83782254  0.94147903     0.14400
H1756       H  0.61682234  0.85947804  0.53088497     0.00100
H1757       H  0.55819961  0.95543650  0.98770173     0.14700
H1758       H  0.65995192  0.92116751  0.94636755     0.14500
C1759       C  0.59303000  0.56679090  0.96482578     0.86200
C1760       C  0.63793080  0.56109601  0.96996153    -0.54000
C1761       C  0.64952303  0.56788375  0.99980768     0.09200
C1762       C  0.61552909  0.60677273  0.51595959     0.20100
C1763       C  0.57102264  0.54882185  0.99794071    -0.54700
C1764       C  0.58912246  0.57409525  0.52696643     0.09300
C1765       C  0.58520327  0.61247822  0.96723079    -0.54200
C1766       C  0.58771175  0.62839909  0.99644798     0.09800
H1767       H  0.65532306  0.54014857  0.95399989     0.14400
H1768       H  0.62951549  0.62646501  0.53503210     0.00100
H1769       H  0.54726690  0.52567349  0.99894305     0.14700
H1770       H  0.56617456  0.62702825  0.94958950     0.14500
C1771       C  0.53969442  0.82418527  0.00160053    -0.11100
C1772       C  0.49964552  0.84376516  0.00081499    -0.05000
C1773       C  0.96930371  0.82300683  0.99882750    -0.11100
C1774       C  0.97114792  0.77914681  0.00025180     0.09900
C1775       C  0.50195362  0.75783045  0.00785386    -0.02900
C1776       C  0.53931146  0.78095112  0.00614434     0.09700
C1777       C  0.57633832  0.75977598  0.00727578    -0.12900
C1778       C  0.57756508  0.71699954  0.00735471    -0.12900
C1779       C  0.54181525  0.69295808  0.00662349     0.09700
C1780       C  0.50321773  0.71338388  0.00764026    -0.02900
C1781       C  0.93482509  0.75596285  0.00243676    -0.13000
C1782       C  0.93486458  0.71294732  0.00158751    -0.13000
C1783       C  0.97127155  0.69064831  0.99915031     0.09900
C1784       C  0.97007981  0.64666817  0.99718759    -0.11100
C1785       C  0.50589544  0.62690909  0.00126697    -0.05000
C1786       C  0.54468250  0.64917880  0.00442821    -0.11100
H1787       H  0.60523323  0.77611121  0.00752708     0.07100
H1788       H  0.60733123  0.70289811  0.00776134     0.07100
H1789       H  0.90551200  0.77097599  0.00470686     0.07300
H1790       H  0.90567641  0.69722422  0.00305232     0.07300
H1791       H  0.49895477  0.87633336  0.99591735     0.03700
H1792       H  0.50669658  0.59406280  0.99639684     0.03700
C1793       C  0.94559854  0.58010084  0.60895824    -0.09400
C1794       C  0.91776177  0.55209161  0.62119519     0.06800
C1795       C  0.89819283  0.52539000  0.59935791    -0.03200
C1796       C  0.91014937  0.52374945  0.56662694    -0.07600
C1797       C  0.93713488  0.55310339  0.55296606     0.05900
C1798       C  0.95151839  0.58400890  0.57585605    -0.02600
Br1799     Br  0.96557389  0.64001614  0.56885379    -0.02300
H1800       H  0.96088407  0.60112396  0.62553125     0.09800
H1801       H  0.89399920  0.50267599  0.55134415     0.07800
Br1802     Br  0.84530946  0.02402777  0.62781283    -0.02800
C1803       C  0.96260174  0.56841988  0.90660713    -0.09400
C1804       C  0.92859100  0.54934211  0.92150773     0.06800
C1805       C  0.89770081  0.53386936  0.90029973    -0.03200
C1806       C  0.89858594  0.54385556  0.86754626    -0.07600
C1807       C  0.93062801  0.56697901  0.85407086     0.05900
C1808       C  0.96202246  0.58041439  0.87461049    -0.02600
Br1809     Br  0.00556070  0.61553206  0.85979077    -0.02300
H1810       H  0.98772384  0.57916806  0.92110674     0.09800
H1811       H  0.87654298  0.52942413  0.85180310     0.07800
Br1812     Br  0.85858544  0.49106701  0.91088109    -0.02800
C1813       C  0.58544674  0.60777405  0.61722216    -0.09400
C1814       C  0.60401286  0.57563851  0.63246131     0.06800
C1815       C  0.62276639  0.54490147  0.61252512    -0.03200
C1816       C  0.61661226  0.54367928  0.57879295    -0.07600
C1817       C  0.58992822  0.57142534  0.56400081     0.05900
C1818       C  0.57712730  0.60571782  0.58459224    -0.02600
Br1819     Br  0.54525276  0.65210009  0.57420831    -0.02300
H1820       H  0.57193381  0.63236403  0.63207631     0.09800
H1821       H  0.63207281  0.52012136  0.56450657     0.07800
Br1822     Br  0.64554869  0.02107196  0.63458384    -0.02800
C1823       C  0.56732490  0.51711414  0.88390685    -0.09400
C1824       C  0.58526706  0.54477698  0.86170439     0.06800
C1825       C  0.60986325  0.57649329  0.87378192    -0.03200
C1826       C  0.61276565  0.58117564  0.90702977    -0.07600
C1827       C  0.58872536  0.55690461  0.92908526     0.05900
C1828       C  0.56487665  0.52552289  0.91648780    -0.02600
Br1829     Br  0.52407939  0.49748986  0.94047808    -0.02300
H1830       H  0.55201797  0.48965199  0.87572448     0.09800
H1831       H  0.63279573  0.60545672  0.91594233     0.07800
Br1832     Br  0.63952683  0.61386909  0.84680145    -0.02800
C1833       C  0.60391411  0.91261273  0.60873471    -0.09400
C1834       C  0.57578260  0.94102636  0.62017958     0.06800
C1835       C  0.55815148  0.96800517  0.59765716    -0.03200
C1836       C  0.56778749  0.96427345  0.56509170    -0.07600
C1837       C  0.58828338  0.93046241  0.55307553     0.05900
C1838       C  0.61291436  0.90952799  0.57607628    -0.02600
Br1839     Br  0.66797238  0.89002109  0.56929209    -0.02300
H1840       H  0.62190772  0.89582249  0.62551244     0.09800
H1841       H  0.55816162  0.98741584  0.54887846     0.07800
Br1842     Br  0.51445856  0.00554210  0.60608799    -0.02800
C1843       C  0.61191744  0.93269832  0.89875407    -0.09400
C1844       C  0.58262564  0.91485359  0.92025150     0.06800
C1845       C  0.54780790  0.89765990  0.90549810    -0.03200
C1846       C  0.54473035  0.89366076  0.87237256    -0.07600
C1847       C  0.57371804  0.91061493  0.85139693     0.05900
C1848       C  0.60782219  0.93054970  0.86501708    -0.02600
Br1849     Br  0.64653713  0.96034673  0.83910088    -0.02300
H1850       H  0.63729937  0.95060799  0.90753962     0.09800
H1851       H  0.51711830  0.88008234  0.86276425     0.07800
Br1852     Br  0.50233869  0.87806104  0.92887978    -0.02800
C1853       C  0.88908675  0.92941456  0.56386755    -0.09400
C1854       C  0.92175506  0.93509436  0.54083120     0.06800
C1855       C  0.95913040  0.94339160  0.55269056    -0.03200
C1856       C  0.96671456  0.93636343  0.58468269    -0.07600
C1857       C  0.93540230  0.93118274  0.60812554     0.05900
C1858       C  0.89562953  0.92745764  0.59704253    -0.02600
Br1859     Br  0.85028172  0.91529686  0.62504482    -0.02300
H1860       H  0.85844119  0.92327881  0.55623808     0.09800
H1861       H  0.99741963  0.93703752  0.59168508     0.07800
Br1862     Br  0.99418598  0.97543226  0.52720709    -0.02800
C1863       C  0.94168708  0.93165944  0.90198030    -0.09400
C1864       C  0.91940413  0.89815166  0.91212112     0.06800
C1865       C  0.90201362  0.87143192  0.88782880    -0.03200
C1866       C  0.90609625  0.88085077  0.85477220    -0.07600
C1867       C  0.92751323  0.91635576  0.84516037     0.05900
C1868       C  0.94626717  0.94033331  0.86997115    -0.02600
Br1869     Br  0.47259026  0.98288152  0.86987027    -0.02300
H1870       H  0.95557934  0.95237590  0.91914117     0.09800
H1871       H  0.89170853  0.86111461  0.83692583     0.07800
Br1872     Br  0.87225964  0.82169234  0.89762104    -0.02800
loop_ 
_geom_bond_atom_site_label_1 
_geom_bond_atom_site_label_2 
_geom_bond_distance 
_geom_bond_site_symmetry_2 
_ccdc_geom_bond_type 
C1            C6   1.417       .  A
C1          C704   1.459   1_545  A
C1          C338   1.590       .  S
C2            C3   1.464       .  A
C2          C703   1.459       .  A
C2           H21   1.057       .  S
C3            C4   1.401       .  A
C3           C25   1.602       .  S
C4            C5   1.433       .  A
C4           C11   1.400       .  A
C5          C708   1.438       .  A
C5          C712   1.427       .  A
C6            C7   1.404       .  A
C6          C707   1.436   1_545  A
C7            C8   1.391       .  A
C7           H17   1.083       .  S
C8            C9   1.402       .  A
C8           H18   1.083       .  S
C9           C10   1.438   1_545  A
C9           C16   1.417       .  A
C10         C707   1.431       .  A
C10         C715   1.436       .  A
C11          C12   1.375       .  A
C11          H19   1.082       .  S
C12          C13   1.398       .  A
C12          H20   1.082       .  S
C13          C14   1.405       .  A
C13         C712   1.437       .  A
C14         C717   1.460       .  A
C14         C116   1.602       .  S
C15          C16   1.476   1_566  A
C15         C716   1.450   1_556  A
C15          H22   1.069       .  S
C16         C357   1.614   1_554  S
C23          C24   1.512       .  S
C23          C29   1.514       .  S
C23          C27   1.634       .  S
C23         C226   1.535       .  S
C24          H31   1.089       .  S
C24          C25   1.339       .  D
C25         C260   1.621       .  S
C26          C28   1.443       .  S
C26         C259   1.610   1_554  S
C26         C264   1.601   1_554  S
C26          H32   1.108       .  S
C27          H33   1.073       .  S
C27         C262   1.423       .  D
C28         C216   1.511       .  S
C28         C261   1.435   1_554  D
C29          H34   1.087       .  S
C29          C30   1.339       .  D
C30         C135   1.598       .  S
C30         C260   1.625       .  S
O35         Zr47   2.583       .  S
O35          C37   1.306       .  A
O36       Zr1009   2.345       .  S
O36          C37   1.252       .  A
C37         C229   1.511       .  S
O38         Zr50   2.517       .  S
O38          C40   1.296       .  A
O39         Zr74   2.323   1_455  S
O39          C40   1.248       .  A
C40         C196   1.480       .  S
O41         Zr50   2.502       .  S
O41          C43   1.296       .  A
O42         Zr73   2.376   1_455  S
O42          C43   1.275       .  A
C43         C209   1.486       .  S
O44         Zr47   2.572       .  S
O44          C46   1.313       .  A
O45       Zr1010   2.337       .  S
O45          C46   1.269       .  A
C46         C219   1.506       .  S
Zr47         O48   2.435       .  S
Zr47         O49   2.436       .  S
Zr47         O77   2.299       .  S
Zr47        O989   2.288       .  S
Zr47         O79   2.388       .  S
Zr47        O990   2.385       .  S
O48          H91   0.990       .  S
O49          H90   0.990       .  S
O49          H94   0.990       .  S
Zr50         O51   2.435       .  S
Zr50         O52   2.434       .  S
Zr50         O53   2.294   1_455  S
Zr50         O80   2.280       .  S
Zr50         O54   2.351   1_455  S
Zr50         O78   2.358       .  S
O51          H92   0.990       .  S
O51          H95   0.990       .  S
O52          H85   0.990       .  S
O53         Zr73   2.257       .  S
O53        Zr983   2.288       .  S
O54         Zr74   2.381       .  S
O54        Zr983   2.382       .  S
O54          H81   0.953       .  S
O55         Zr67   2.512       .  S
O55          C57   1.293       .  A
O56       Zr1478   2.355   1_545  S
O56          C57   1.254       .  A
C57         C156   1.473       .  S
O58         Zr70   2.529       .  S
O58          C60   1.302       .  A
O59        Zr541   2.321   1_445  S
O59          C60   1.263       .  A
C60         C186   1.494       .  S
O61         Zr70   2.537       .  S
O61          C63   1.298       .  A
O62        Zr542   2.352       .  S
O62          C63   1.266       .  A
C63         C176   1.497       .  S
O64         Zr67   2.519       .  S
O64          C66   1.294       .  A
O65       Zr1477   2.366   1_545  S
O65          C66   1.263       .  A
C66         C169   1.493       .  S
Zr67         O68   2.436       .  S
Zr67         O69   2.434       .  S
Zr67       O1012   2.291       .  S
Zr67        O545   2.293   1_545  S
Zr67       O1011   2.365       .  S
Zr67        O547   2.365   1_545  S
O68          H88   0.991       .  S
O68          H93   0.990       .  S
O69          H89   0.990       .  S
Zr70         O71   2.433       .  S
Zr70         O72   2.435       .  S
Zr70         O76   2.311       .  S
Zr70        O548   2.276   1_545  S
Zr70         O75   2.390       .  S
Zr70        O546   2.356   1_545  S
O71          H87   0.990       .  S
O72          H86   0.990       .  S
O72          H96   0.990       .  S
Zr73        O972   2.349       .  S
Zr73        O527   2.287   1_655  S
Zr73       O1469   2.371       .  S
Zr73        O544   2.239       .  S
Zr73         O78   2.377   1_655  S
Zr73       O1015   2.397       .  S
Zr74        O981   2.322       .  S
Zr74       O1460   2.363       .  S
Zr74        O530   2.361   1_655  S
Zr74         O80   2.247   1_655  S
Zr74       O1013   2.241       .  S
Zr74        O543   2.386       .  S
O75       Zr1003   2.396   1_455  S
O75        Zr542   2.362       .  S
O75          H83   0.965       .  S
O76       Zr1003   2.314   1_455  S
O76        Zr541   2.246   1_445  S
O77        Zr535   2.287       .  S
O77       Zr1010   2.240       .  S
O78        Zr538   2.374       .  S
O78          H82   0.966       .  S
O79        Zr535   2.365       .  S
O79       Zr1009   2.404       .  S
O79          H84   0.967       .  S
O80        Zr538   2.287       .  S
C97          C98   1.525       .  S
C97         C103   1.519       .  S
C97         C101   1.639       .  S
C97         C166   1.571       .  S
C98         H105   1.087       .  S
C98          C99   1.332       .  D
C99         C146   1.583       .  S
C99         C334   1.626       .  S
C100        C102   1.457       .  S
C100        C333   1.617   1_554  S
C100        C338   1.626       .  S
C100        H106   1.111       .  S
C101        H107   1.076       .  S
C101        C336   1.424       .  D
C102        C159   1.529       .  S
C102        C335   1.427   1_554  D
C103        H108   1.070       .  S
C103        C104   1.328       .  D
C104        C235   1.601       .  S
C104        C334   1.634       .  S
C109        C110   1.529       .  S
C109        C115   1.532       .  S
C109        C113   1.658       .  S
C109        C206   1.584       .  S
C110        H117   1.081       .  S
C110        C111   1.320       .  D
C111        C133   1.587       .  S
C111        C346   1.584       .  S
C112        C114   1.431       .  S
C112        C345   1.587   1_554  S
C112        C350   1.625   1_554  S
C112        H118   1.083       .  S
C113        H119   1.068       .  S
C113        C348   1.445       .  D
C114        C199   1.539       .  S
C114        C347   1.443   1_554  D
C115        H120   1.077       .  S
C115        C116   1.335       .  D
C116        C346   1.619       .  S
C121        C122   1.516       .  S
C121        C127   1.491       .  S
C121        C125   1.679       .  S
C121        C189   1.539       .  S
C122        H129   1.093       .  S
C122        C123   1.313       .  D
C123        C250   1.603       .  S
C123        C358   1.633       .  S
C124        C126   1.436       .  S
C124        C357   1.645   1_554  S
C124        C362   1.654   1_554  S
C124        H130   1.112       .  S
C125        H131   1.078       .  S
C125        C360   1.451       .  D
C126        C179   1.558       .  S
C126        C359   1.451   1_554  D
C127        H132   1.093       .  S
C127        C128   1.315       .  D
C128        C148   1.590       .  S
C128        C358   1.652       .  S
C133        C134   1.464   1_455  A
C133        C138   1.408       .  A
C134       C1071   1.467       .  A
C134        H153   1.077       .  S
C135        C136   1.423       .  A
C135       C1070   1.470       .  A
C136        C143   1.407       .  A
C136       C1073   1.435       .  A
C137        C138   1.432   1_655  A
C137        C142   1.434       .  A
C137       C1072   1.434       .  A
C138        C139   1.402       .  A
C139        C140   1.378       .  A
C139        H149   1.082       .  S
C140        C141   1.400       .  A
C140        H150   1.083       .  S
C141        C142   1.435   1_455  A
C141        C148   1.410       .  A
C142       C1081   1.436       .  A
C143        C144   1.389       .  A
C143        H151   1.082       .  S
C144        C145   1.401       .  A
C144        H152   1.083       .  S
C145        C146   1.422       .  A
C145       C1078   1.436       .  A
C146       C1083   1.454       .  A
C147        C148   1.462       .  A
C147       C1082   1.456   1_455  A
C147        H154   1.081       .  S
C155        C156   1.379       .  A
C155        C160   1.398       .  A
C155        H162   1.085       .  S
C156        C157   1.400       .  A
C157        C158   1.411       .  A
C157       Br632   1.911   1_545  S
C158        C159   1.411       .  A
C158        H163   1.064   1_545  S
C159        C160   1.449       .  A
C160       Br161   1.895       .  S
Br164       C625   1.910       .  S
C165        C166   1.413       .  A
C165        C170   1.402       .  A
C165        H172   1.084       .  S
C166        C167   1.441       .  A
C167        C168   1.414       .  A
C167       Br174   1.931   1_545  S
C168        C169   1.402       .  A
C168        H173   1.084       .  S
C169        C170   1.413       .  A
C170       Br171   1.919       .  S
C175        C176   1.388       .  A
C175        C180   1.402       .  A
C175        H182   1.086       .  S
C176        C177   1.416       .  A
C177        C178   1.426       .  A
C177       Br652   1.911       .  S
C178        C179   1.419       .  A
C178        H183   1.074       .  S
C179        C180   1.445       .  A
C180       Br181   1.902       .  S
Br184       C645   1.915       .  S
C185        C186   1.422       .  A
C185        C190   1.391       .  A
C185        H192   1.072   1_545  S
C186        C187   1.394       .  A
C187        C188   1.395       .  A
C187       Br194   1.918       .  S
C188        C189   1.439       .  A
C188        H193   1.084       .  S
C189        C190   1.376       .  A
C190       Br191   1.883       .  S
C195        C196   1.378       .  A
C195        C200   1.395       .  A
C195        H202   1.084       .  S
C196        C197   1.428       .  A
C197        C198   1.392       .  A
C197       Br204   1.918       .  S
C198        C199   1.371       .  A
C198        H203   1.076       .  S
C199        C200   1.459       .  A
C200       Br201   1.940       .  S
C205        C206   1.430       .  A
C205        C210   1.416       .  A
C205        H212   1.076       .  S
C206        C207   1.423       .  A
C207        C208   1.395       .  A
C207       Br214   1.881   1_455  S
C208        C209   1.394       .  A
C208        H213   1.085       .  S
C209        C210   1.408       .  A
C210       Br211   1.919       .  S
C215        C216   1.433       .  A
C215        C220   1.407       .  A
C215        H222   1.081       .  S
C216        C217   1.354       .  A
C217        C218   1.404       .  A
C217       Br224   1.874       .  S
C218        C219   1.424       .  A
C218        H223   1.068       .  S
C219        C220   1.398       .  A
C220       Br221   1.920       .  S
C225        C226   1.368       .  A
C225        C230   1.371       .  A
C225        H232   1.077       .  S
C226        C227   1.438       .  A
C227        C228   1.425       .  A
C227       Br234   1.920       .  S
C228        C229   1.403       .  A
C228        H233   1.083       .  S
C229        C230   1.424       .  A
C230      Br1167   1.867       .  S
Br231      C1166   1.866       .  S
C235        C470   1.462   1_545  A
C235        C240   1.422       .  A
C236        C469   1.456       .  A
C236        C237   1.466       .  A
C236        H255   1.066   1_554  S
C237        C238   1.403       .  A
C237        C259   1.597   1_554  S
C238        C239   1.432       .  A
C238        C245   1.401       .  A
C239        C474   1.441       .  A
C239        C478   1.434       .  A
C240        C473   1.441   1_545  A
C240        C241   1.402       .  A
C241        C242   1.390       .  A
C241        H251   1.083       .  S
C242        C243   1.404       .  A
C242        H252   1.083       .  S
C243        C244   1.433   1_545  A
C243        C250   1.412       .  A
C244        C473   1.432       .  A
C244        C481   1.441       .  A
C245        C246   1.377       .  A
C245        H253   1.083       .  S
C246        C247   1.398       .  A
C246        H254   1.082       .  S
C247        C478   1.440       .  A
C247        C248   1.408       .  A
C248        C483   1.461       .  A
C248        C350   1.607   1_554  S
C249        C482   1.447       .  A
C249        C250   1.474   1_565  A
C249        H256   1.070       .  S
C257        C258   1.513       .  S
C257        C263   1.519       .  S
C257        C261   1.641       .  S
C257        C460   1.538       .  S
C258        H265   1.089       .  S
C258        C259   1.337       .  D
C260        C262   1.443       .  S
C260        H266   1.110       .  S
C261        H267   1.079       .  S
C262        C450   1.510       .  S
C263        H268   1.087       .  S
C263        C264   1.336       .  D
C264        C369   1.588       .  S
O269       Zr281   2.563       .  S
O269        C271   1.302       .  A
O270      Zr1243   2.356       .  S
O270        C271   1.254       .  A
C271        C463   1.510       .  S
O272       Zr284   2.513       .  S
O272        C274   1.293       .  A
O273       Zr308   2.326   1_455  S
O273        C274   1.246       .  A
C274        C430   1.478       .  S
O275       Zr284   2.513       .  S
O275        C277   1.296       .  A
O276       Zr307   2.380   1_455  S
O276        C277   1.274       .  A
C277        C443   1.497       .  S
O278       Zr281   2.534       .  S
O278        C280   1.303       .  A
O279      Zr1244   2.344       .  S
O279        C280   1.267       .  A
C280        C453   1.500       .  S
Zr281       O282   2.434       .  S
Zr281       O283   2.435       .  S
Zr281      O1223   2.286       .  S
Zr281       O311   2.301       .  S
Zr281      O1224   2.385       .  S
Zr281       O313   2.383       .  S
O282        H325   0.990       .  S
O283        H324   0.990       .  S
O283        H328   0.990       .  S
Zr284       O285   2.433       .  S
Zr284       O286   2.436       .  S
Zr284       O287   2.293   1_455  S
Zr284       O314   2.288       .  S
Zr284       O288   2.362   1_455  S
Zr284       O312   2.356       .  S
O285        H326   0.990       .  S
O285        H329   0.990       .  S
O286        H319   0.990       .  S
O287      Zr1217   2.291       .  S
O287       Zr307   2.255       .  S
O288      Zr1217   2.377       .  S
O288       Zr308   2.392       .  S
O288        H315   0.954   1_655  S
O289       Zr301   2.514       .  S
O289        C291   1.296       .  A
O290      Zr1712   2.342   1_545  S
O290        C291   1.257       .  A
C291        C390   1.468       .  S
O292       Zr304   2.529       .  S
O292        C294   1.301       .  A
O293       Zr775   2.315   1_445  S
O293        C294   1.262       .  A
C294        C420   1.494       .  S
O295       Zr304   2.505       .  S
O295        C297   1.291       .  A
O296       Zr776   2.389       .  S
O296        C297   1.271       .  A
C297        C410   1.490       .  S
O298       Zr301   2.512       .  S
O298        C300   1.292       .  A
O299      Zr1711   2.368   1_545  S
O299        C300   1.262       .  A
C300        C403   1.493       .  S
Zr301       O302   2.433       .  S
Zr301       O303   2.433       .  S
Zr301      O1246   2.293       .  S
Zr301       O779   2.285   1_545  S
Zr301      O1245   2.363       .  S
Zr301       O781   2.367   1_545  S
O302        H322   0.990       .  S
O302        H327   0.990       .  S
O303        H323   0.990       .  S
Zr304       O305   2.434       .  S
Zr304       O306   2.436       .  S
Zr304       O310   2.298       .  S
Zr304       O782   2.287   1_545  S
Zr304       O309   2.406       .  S
Zr304       O780   2.359   1_545  S
O305        H321   0.991       .  S
O306        H320   0.990       .  S
O306        H330   0.990       .  S
Zr307      O1206   2.348       .  S
Zr307       O761   2.298   1_655  S
Zr307      O1703   2.363       .  S
Zr307       O778   2.241       .  S
Zr307       O312   2.378   1_655  S
Zr307      O1249   2.399       .  S
Zr308      O1215   2.334       .  S
Zr308      O1694   2.351       .  S
Zr308       O764   2.374   1_655  S
Zr308      O1247   2.241       .  S
Zr308       O314   2.249   1_655  S
Zr308       O777   2.383       .  S
O309      Zr1237   2.379   1_455  S
O309       Zr776   2.365       .  S
O309        H317   0.966       .  S
O310      Zr1237   2.305   1_455  S
O310       Zr775   2.243   1_445  S
O311       Zr769   2.275       .  S
O311      Zr1244   2.245       .  S
O312       Zr772   2.374       .  S
O312        H316   0.966       .  S
O313       Zr769   2.369       .  S
O313      Zr1243   2.398       .  S
O313        H318   0.967       .  S
O314       Zr772   2.287       .  S
C331        C332   1.523       .  S
C331        C337   1.518       .  S
C331        C335   1.644       .  S
C331        C400   1.572       .  S
C332        H339   1.087       .  S
C332        C333   1.327       .  D
C333        C380   1.577   1_556  S
C334        C336   1.458       .  S
C334        H340   1.112       .  S
C335        H341   1.076       .  S
C336        C393   1.528       .  S
C337        H342   1.069       .  S
C337        C338   1.329   1_556  D
C343        C344   1.531       .  S
C343        C349   1.531       .  S
C343        C347   1.650       .  S
C343        C440   1.584       .  S
C344        H351   1.083       .  S
C344        C345   1.323       .  D
C345        C367   1.590   1_556  S
C346        C348   1.431       .  S
C346        H352   1.086       .  S
C347        H353   1.067       .  S
C348        C433   1.535       .  S
C349        H354   1.078       .  S
C349        C350   1.341       .  D
C355        C356   1.518       .  S
C355        C361   1.492       .  S
C355        C359   1.670       .  S
C355        C423   1.537       .  S
C356        H363   1.093       .  S
C356        C357   1.317       .  D
C358        C360   1.440       .  S
C358        H364   1.110       .  S
C359        H365   1.079       .  S
C360        C413   1.559       .  S
C361        H366   1.092       .  S
C361        C362   1.318       .  D
C362        C382   1.592   1_556  S
C367        C368   1.463   1_554  A
C367        C372   1.409       .  A
C368       C1305   1.468   1_456  A
C368        H387   1.075   1_455  S
C369       C1304   1.466       .  A
C369        C370   1.411   1_556  A
C370       C1307   1.431       .  A
C370        C377   1.404       .  A
C371       C1306   1.431   1_455  A
C371        C372   1.434       .  A
C371        C376   1.432       .  A
C372        C373   1.402       .  A
C373        C374   1.378       .  A
C373        H383   1.082       .  S
C374        C375   1.399       .  A
C374        H384   1.082       .  S
C375        C376   1.434       .  A
C375        C382   1.407       .  A
C376       C1315   1.440   1_455  A
C377        C378   1.382       .  A
C377        H385   1.082       .  S
C378        C379   1.401       .  A
C378        H386   1.083       .  S
C379       C1312   1.433       .  A
C379        C380   1.414       .  A
C380       C1317   1.453       .  A
C381       C1316   1.462   1_456  A
C381        C382   1.463   1_556  A
C381        H388   1.082       .  S
C389        C390   1.379       .  A
C389        C394   1.396       .  A
C389        H396   1.086       .  S
C390        C391   1.400       .  A
C391        C392   1.411       .  A
C391       Br866   1.909       .  S
C392        C393   1.412       .  A
C392        H397   1.066       .  S
C393        C394   1.447       .  A
C394       Br395   1.890       .  S
Br398       C859   1.911       .  S
C399        C400   1.415       .  A
C399        C404   1.403       .  A
C399        H406   1.084       .  S
C400        C401   1.442       .  A
C401        C402   1.413       .  A
C401       Br408   1.931   1_545  S
C402        C403   1.400       .  A
C402        H407   1.084       .  S
C403        C404   1.414       .  A
C404       Br405   1.921       .  S
C409        C410   1.384       .  A
C409        C414   1.397       .  A
C409        H416   1.085       .  S
C410        C411   1.414       .  A
C411        C412   1.427       .  A
C411       Br886   1.914   1_545  S
C412        C413   1.420       .  A
C412        H417   1.074       .  S
C413        C414   1.448       .  A
C414       Br415   1.911       .  S
Br418       C879   1.915       .  S
C419        C420   1.422       .  A
C419        C424   1.389       .  A
C419        H426   1.072   1_545  S
C420        C421   1.394       .  A
C421        C422   1.397       .  A
C421       Br428   1.918       .  S
C422        C423   1.438       .  A
C422        H427   1.084       .  S
C423        C424   1.379       .  A
C424       Br425   1.890       .  S
C429        C430   1.377       .  A
C429        C434   1.391       .  A
C429        H436   1.085       .  S
C430        C431   1.430       .  A
C431        C432   1.392       .  A
C431       Br438   1.911       .  S
C432        C433   1.366       .  A
C432        H437   1.076       .  S
C433        C434   1.455       .  A
C434       Br435   1.936       .  S
C439        C440   1.431       .  A
C439        C444   1.420       .  A
C439        H446   1.074       .  S
C440        C441   1.417       .  A
C441        C442   1.395       .  A
C441       Br448   1.876       .  S
C442        C443   1.397       .  A
C442        H447   1.085       .  S
C443        C444   1.410       .  A
C444       Br445   1.917       .  S
C449        C450   1.434       .  A
C449        C454   1.409       .  A
C449        H456   1.075       .  S
C450        C451   1.355       .  A
C451        C452   1.394       .  A
C451       Br458   1.855       .  S
C452        C453   1.417       .  A
C452        H457   1.069       .  S
C453        C454   1.402       .  A
C454       Br455   1.917       .  S
C459        C460   1.372       .  A
C459        C464   1.379       .  A
C459        H466   1.079       .  S
C460        C461   1.440       .  A
C461        C462   1.421       .  A
C461       Br468   1.922       .  S
C462        C463   1.400       .  A
C462        H467   1.083       .  S
C463        C464   1.423       .  A
C464      Br1401   1.870       .  S
Br465      C1400   1.868       .  S
C469        C474   1.425       .  A
C469        C806   1.598       .  S
C470        C471   1.470       .  A
C470        H489   1.069       .  S
C471        C472   1.406       .  A
C471        C493   1.600       .  S
C472        C473   1.431       .  A
C472        C479   1.404       .  A
C474        C475   1.403       .  A
C475        C476   1.393       .  A
C475        H485   1.083       .  S
C476        C477   1.403       .  A
C476        H486   1.083       .  S
C477        C478   1.436       .  A
C477        C484   1.417       .  A
C479        C480   1.383       .  A
C479        H487   1.083       .  S
C480        C481   1.397       .  A
C480        H488   1.083       .  S
C481        C482   1.411       .  A
C482        C584   1.591       .  S
C483        C484   1.458       .  A
C483        H490   1.063   1_554  S
C484        C825   1.594   1_554  S
C491        C492   1.516       .  S
C491        C497   1.518       .  S
C491        C495   1.636       .  S
C491        C694   1.535       .  S
C492        H499   1.087       .  S
C492        C493   1.340       .  D
C493        C728   1.611       .  S
C494        C727   1.614   1_554  S
C494        C732   1.606   1_554  S
C494        C496   1.445       .  S
C494        H500   1.108       .  S
C495        H501   1.079       .  S
C495        C730   1.433       .  D
C496        C684   1.503       .  S
C496        C729   1.433   1_554  D
C497        H502   1.086       .  S
C497        C498   1.335       .  D
C498        C603   1.592       .  S
C498        C728   1.607       .  S
O503       Zr515   2.577       .  S
O503        C505   1.305       .  A
O504      Zr1477   2.344       .  S
O504        C505   1.253       .  A
C505        C697   1.510       .  S
O506       Zr518   2.498       .  S
O506        C508   1.289       .  A
O507       Zr542   2.368   1_565  S
O507        C508   1.255       .  A
C508        C664   1.491       .  S
O509       Zr518   2.501       .  S
O509        C511   1.295       .  A
O510       Zr541   2.380   1_455  S
O510        C511   1.274       .  A
C511        C677   1.487       .  S
O512       Zr515   2.560       .  S
O512        C514   1.310       .  A
O513      Zr1478   2.335       .  S
O513        C514   1.267       .  A
C514        C687   1.498       .  S
Zr515       O516   2.435       .  S
Zr515       O517   2.435       .  S
Zr515      O1457   2.286       .  S
Zr515       O545   2.305       .  S
Zr515      O1458   2.381       .  S
Zr515       O547   2.384       .  S
O516        H559   0.990       .  S
O517        H558   0.990       .  S
O517        H562   0.990       .  S
Zr518       O519   2.435       .  S
Zr518       O520   2.433       .  S
Zr518       O521   2.288   1_455  S
Zr518       O548   2.291       .  S
Zr518       O522   2.381       .  S
Zr518       O546   2.372       .  S
O519        H560   0.990       .  S
O519        H563   0.990       .  S
O520        H553   0.990       .  S
O521      Zr1451   2.278       .  S
O521       Zr541   2.259       .  S
O522      Zr1451   2.392   1_455  S
O522       Zr542   2.397   1_565  S
O522        H549   0.971   1_455  S
O523       Zr535   2.514       .  S
O523        C525   1.294       .  A
O524      Zr1010   2.353       .  S
O524        C525   1.253       .  A
C525        C624   1.472       .  S
O526       Zr538   2.541       .  S
O526        C528   1.302       .  A
O527        C528   1.259       .  A
C528        C654   1.490       .  S
O529       Zr538   2.514       .  S
O529        C531   1.297       .  A
O530        C531   1.273       .  A
C531        C644   1.477       .  S
O532       Zr535   2.510       .  S
O532        C534   1.293       .  A
O533      Zr1009   2.375       .  S
O533        C534   1.265       .  A
C534        C637   1.489       .  S
Zr535       O536   2.435       .  S
Zr535       O537   2.435       .  S
Zr535      O1480   2.291       .  S
Zr535      O1479   2.365       .  S
O536        H556   0.990       .  S
O536        H561   0.990       .  S
O537        H557   0.990       .  S
Zr538       O539   2.435       .  S
Zr538       O540   2.437       .  S
Zr538       O544   2.286   1_455  S
Zr538       O543   2.401   1_455  S
O539        H555   0.990       .  S
O540        H554   0.990       .  S
O540        H564   0.990       .  S
Zr541      O1440   2.354       .  S
Zr541      O1001   2.375   1_565  S
Zr541       O546   2.376   1_655  S
Zr541      O1483   2.403   1_565  S
Zr542      O1449   2.342   1_445  S
Zr542       O992   2.357   1_455  S
Zr542      O1481   2.264   1_455  S
Zr542       O548   2.240   1_545  S
O543      Zr1471   2.375       .  S
O543        H551   0.964       .  S
O544      Zr1471   2.289       .  S
O545      Zr1478   2.246       .  S
O546        H550   0.964       .  S
O547      Zr1477   2.401       .  S
O547        H552   0.969       .  S
C565        C566   1.527       .  S
C565        C571   1.529       .  S
C565        C569   1.629       .  S
C565        C634   1.567       .  S
C566        H573   1.085       .  S
C566        C567   1.333       .  D
C567        C614   1.602       .  S
C567        C802   1.641       .  S
C568        C801   1.620   1_554  S
C568        C806   1.635       .  S
C568        C570   1.455       .  S
C568        H574   1.112       .  S
C569        H575   1.073       .  S
C569        C804   1.419       .  D
C570        C627   1.533       .  S
C570        C803   1.428   1_554  D
C571        H576   1.073       .  S
C571        C572   1.332       .  D
C572        C703   1.601       .  S
C572        C802   1.617       .  S
C577        C578   1.530       .  S
C577        C583   1.518       .  S
C577        C581   1.644       .  S
C577        C674   1.582       .  S
C578        H585   1.086       .  S
C578        C579   1.328       .  D
C579        C601   1.616       .  S
C579        C814   1.615       .  S
C580        C813   1.614   1_554  S
C580        C818   1.623   1_554  S
C580        C582   1.438       .  S
C580        H586   1.108       .  S
C581        H587   1.063       .  S
C581        C816   1.436       .  D
C582        C667   1.518       .  S
C582        C815   1.437   1_554  D
C583        H588   1.082       .  S
C583        C584   1.346       .  D
C584        C814   1.627       .  S
C589        C590   1.505       .  S
C589        C595   1.494       .  S
C589        C593   1.667       .  S
C589        C657   1.529       .  S
C590        H597   1.093       .  S
C590        C591   1.320       .  D
C591        C718   1.585       .  S
C591        C826   1.626       .  S
C592        C825   1.632   1_554  S
C592        C830   1.641   1_554  S
C592        C594   1.445       .  S
C592        H598   1.109       .  S
C593        H599   1.077       .  S
C593        C828   1.436       .  D
C594        C647   1.526       .  S
C594        C827   1.434   1_554  D
C595        H600   1.095       .  S
C595        C596   1.315       .  D
C596        C616   1.575       .  S
C596        C826   1.631       .  S
C601        C602   1.479       .  A
C601        C606   1.414       .  A
C602       C1539   1.466   1_455  A
C602        H621   1.072       .  S
C603       C1538   1.470       .  A
C603        C604   1.421       .  A
C604       C1541   1.432       .  A
C604        C611   1.407       .  A
C605       C1540   1.432   1_455  A
C605        C606   1.434       .  A
C605        C610   1.432       .  A
C606        C607   1.403       .  A
C607        C608   1.376       .  A
C607        H617   1.082       .  S
C608        C609   1.400       .  A
C608        H618   1.082       .  S
C609        C610   1.429       .  A
C609        C616   1.410       .  A
C610       C1549   1.432   1_455  A
C611        C612   1.392       .  A
C611        H619   1.083       .  S
C612        C613   1.403       .  A
C612        H620   1.083       .  S
C613       C1546   1.442       .  A
C613        C614   1.426       .  A
C614       C1551   1.464       .  A
C615       C1550   1.451   1_455  A
C615        C616   1.454       .  A
C615        H622   1.073       .  S
C623        C624   1.376       .  A
C623        C628   1.398       .  A
C623        H630   1.086       .  S
C624        C625   1.402       .  A
C625        C626   1.412       .  A
C626        C627   1.413       .  A
C626        H631   1.068       .  S
C627        C628   1.451       .  A
C628       Br629   1.889       .  S
C633        C634   1.413       .  A
C633        C638   1.400       .  A
C633        H640   1.083       .  S
C634        C635   1.437       .  A
C635        C636   1.412       .  A
C635       Br642   1.932       .  S
C636        C637   1.402       .  A
C636        H641   1.084       .  S
C637        C638   1.412       .  A
C638       Br639   1.919       .  S
C643        C644   1.388       .  A
C643        C648   1.388       .  A
C643        H650   1.086       .  S
C644        C645   1.412       .  A
C645        C646   1.421       .  A
C646        C647   1.421       .  A
C646        H651   1.081       .  S
C647        C648   1.435       .  A
C648       Br649   1.917       .  S
C653        C654   1.420       .  A
C653        C658   1.383       .  A
C653        H660   1.068       .  S
C654        C655   1.388       .  A
C655        C656   1.399       .  A
C655       Br662   1.915       .  S
C656        C657   1.445       .  A
C656        H661   1.083       .  S
C657        C658   1.374       .  A
C658       Br659   1.896       .  S
C663        C664   1.381       .  A
C663        C668   1.401       .  A
C663        H670   1.084       .  S
C664        C665   1.415       .  A
C665        C666   1.391       .  A
C665       Br672   1.884   1_565  S
C666        C667   1.386       .  A
C666        H671   1.080       .  S
C667        C668   1.454       .  A
C668       Br669   1.912       .  S
C673        C674   1.434       .  A
C673        C678   1.417       .  A
C673        H680   1.074       .  S
C674        C675   1.416       .  A
C675        C676   1.394       .  A
C675       Br682   1.861       .  S
C676        C677   1.392       .  A
C676        H681   1.085       .  S
C677        C678   1.407       .  A
C678       Br679   1.919       .  S
C683        C684   1.430       .  A
C683        C688   1.403       .  A
C683        H690   1.081       .  S
C684        C685   1.354       .  A
C685        C686   1.403       .  A
C685       Br692   1.873       .  S
C686        C687   1.425       .  A
C686        H691   1.072       .  S
C687        C688   1.397       .  A
C688       Br689   1.921       .  S
C693        C694   1.370       .  A
C693        C698   1.377       .  A
C693        H700   1.078       .  S
C694        C695   1.440       .  A
C695        C696   1.422       .  A
C695       Br702   1.921       .  S
C696        C697   1.400       .  A
C696        H701   1.083       .  S
C697        C698   1.424       .  A
C698      Br1635   1.865       .  S
Br699      C1634   1.871       .  S
C703        C708   1.413       .  A
C704        C705   1.465       .  A
C704        H723   1.067   1_554  S
C705        C706   1.409       .  A
C705        C727   1.604   1_554  S
C706        C707   1.435       .  A
C706        C713   1.401       .  A
C708        C709   1.401       .  A
C709        C710   1.387       .  A
C709        H719   1.083       .  S
C710        C711   1.403       .  A
C710        H720   1.083       .  S
C711        C712   1.432       .  A
C711        C718   1.408       .  A
C713        C714   1.383       .  A
C713        H721   1.083       .  S
C714        C715   1.400       .  A
C714        H722   1.083       .  S
C715        C716   1.406       .  A
C716        C818   1.588   1_554  S
C717        C718   1.461       .  A
C717        H724   1.066       .  S
C725        C726   1.518       .  S
C725        C731   1.516       .  S
C725        C729   1.633       .  S
C725        C928   1.530       .  S
C726        H733   1.088       .  S
C726        C727   1.340       .  D
C728        C730   1.444       .  S
C728        H734   1.108       .  S
C729        H735   1.078       .  S
C730        C918   1.506       .  S
C731        H736   1.087       .  S
C731        C732   1.333       .  D
C732        C837   1.591   1_556  S
O737       Zr749   2.568       .  S
O737        C739   1.303       .  A
O738      Zr1711   2.344       .  S
O738        C739   1.252       .  A
C739        C931   1.506       .  S
O740       Zr752   2.514       .  S
O740        C742   1.291       .  A
O741       Zr776   2.357   1_565  S
O741        C742   1.251       .  A
C742        C898   1.495       .  S
O743       Zr752   2.508       .  S
O743        C745   1.296       .  A
O744       Zr775   2.380   1_455  S
O744        C745   1.274       .  A
C745        C911   1.490       .  S
O746       Zr749   2.556       .  S
O746        C748   1.309       .  A
O747      Zr1712   2.345       .  S
O747        C748   1.267       .  A
C748        C921   1.501       .  S
Zr749       O750   2.435       .  S
Zr749       O751   2.435       .  S
Zr749      O1691   2.290       .  S
Zr749       O779   2.301       .  S
Zr749      O1692   2.377       .  S
Zr749       O781   2.386       .  S
O750        H793   0.990       .  S
O751        H792   0.990       .  S
O751        H796   0.990       .  S
Zr752       O753   2.435       .  S
Zr752       O754   2.433       .  S
Zr752       O755   2.292   1_455  S
Zr752       O782   2.293       .  S
Zr752       O756   2.377       .  S
Zr752       O780   2.369       .  S
O753        H794   0.990       .  S
O753        H797   0.990       .  S
O754        H787   0.990       .  S
O755      Zr1685   2.285       .  S
O755       Zr775   2.262       .  S
O756      Zr1685   2.385   1_455  S
O756       Zr776   2.400   1_565  S
O756        H783   0.953   1_455  S
O757       Zr769   2.544       .  S
O757        C759   1.303       .  A
O758      Zr1244   2.307       .  S
O758        C759   1.260       .  A
C759        C858   1.489       .  S
O760       Zr772   2.528       .  S
O760        C762   1.300       .  A
O761        C762   1.261       .  A
C762        C888   1.487       .  S
O763       Zr772   2.508       .  S
O763        C765   1.293       .  A
O764        C765   1.271       .  A
C765        C878   1.479       .  S
O766       Zr769   2.530       .  S
O766        C768   1.296       .  A
O767      Zr1243   2.370       .  S
O767        C768   1.261       .  A
C768        C871   1.499       .  S
Zr769       O770   2.435       .  S
Zr769       O771   2.435       .  S
Zr769      O1714   2.308       .  S
Zr769      O1713   2.385       .  S
O770        H790   0.990       .  S
O770        H795   0.990       .  S
O771        H791   0.990       .  S
Zr772       O773   2.436       .  S
Zr772       O774   2.438       .  S
Zr772       O778   2.289   1_455  S
Zr772       O777   2.400   1_455  S
O773        H789   0.990       .  S
O774        H788   0.990       .  S
O774        H798   0.990       .  S
Zr775      O1674   2.354       .  S
Zr775      O1235   2.378   1_565  S
Zr775       O780   2.374   1_655  S
Zr775      O1717   2.401       .  S
Zr776      O1683   2.334   1_445  S
Zr776      O1226   2.338   1_455  S
Zr776      O1715   2.252   1_455  S
Zr776       O782   2.247   1_545  S
O777      Zr1705   2.367       .  S
O777        H785   0.964       .  S
O778      Zr1705   2.293       .  S
O779      Zr1712   2.239       .  S
O780        H784   0.964       .  S
O781      Zr1711   2.397       .  S
O781        H786   0.968       .  S
C799        C800   1.524       .  S
C799        C805   1.518       .  S
C799        C803   1.647       .  S
C799        C868   1.577       .  S
C800        H807   1.088       .  S
C800        C801   1.325       .  D
C801        C848   1.584   1_556  S
C802        C804   1.453       .  S
C802        H808   1.112       .  S
C803        H809   1.074       .  S
C804        C861   1.516       .  S
C805        H810   1.065       .  S
C805        C806   1.333   1_556  D
C811        C812   1.532       .  S
C811        C817   1.518       .  S
C811        C815   1.634       .  S
C811        C908   1.577       .  S
C812        H819   1.086       .  S
C812        C813   1.332       .  D
C813        C835   1.616       .  S
C814        C816   1.438       .  S
C814        H820   1.109       .  S
C815        H821   1.059       .  S
C816        C901   1.520       .  S
C817        H822   1.082       .  S
C817        C818   1.346       .  D
C823        C824   1.509       .  S
C823        C829   1.498       .  S
C823        C827   1.660       .  S
C823        C891   1.529       .  S
C824        H831   1.092       .  S
C824        C825   1.326       .  D
C826        C828   1.446       .  S
C826        H832   1.110       .  S
C827        H833   1.078       .  S
C828        C881   1.530       .  S
C829        H834   1.095       .  S
C829        C830   1.313       .  D
C830        C850   1.589       .  S
C835        C836   1.480       .  A
C835        C840   1.418       .  A
C836       C1773   1.470   1_455  A
C836        H855   1.075       .  S
C837       C1772   1.468       .  A
C837        C838   1.416       .  A
C838       C1775   1.432       .  A
C838        C845   1.404       .  A
C839       C1774   1.434   1_456  A
C839        C840   1.435       .  A
C839        C844   1.438       .  A
C840        C841   1.404       .  A
C841        C842   1.380       .  A
C841        H851   1.082       .  S
C842        C843   1.401       .  A
C842        H852   1.082       .  S
C843        C844   1.432       .  A
C843        C850   1.416       .  A
C844       C1783   1.434   1_455  A
C845        C846   1.385       .  A
C845        H853   1.082       .  S
C846        C847   1.402       .  A
C846        H854   1.082       .  S
C847       C1780   1.433       .  A
C847        C848   1.416       .  A
C848       C1785   1.461       .  A
C849       C1784   1.456   1_455  A
C849        C850   1.461       .  A
C849        H856   1.074       .  S
C857        C858   1.405       .  A
C857        C862   1.395       .  A
C857        H864   1.085       .  S
C858        C859   1.410       .  A
C859        C860   1.423       .  A
C860        C861   1.426       .  A
C860        H865   1.077       .  S
C861        C862   1.374       .  A
C862       Br863   1.817       .  S
C867        C868   1.416       .  A
C867        C872   1.406       .  A
C867        H874   1.084       .  S
C868        C869   1.445       .  A
C869        C870   1.416       .  A
C869       Br876   1.933       .  S
C870        C871   1.401       .  A
C870        H875   1.084       .  S
C871        C872   1.415       .  A
C872       Br873   1.919       .  S
C877        C878   1.387       .  A
C877        C882   1.392       .  A
C877        H884   1.086       .  S
C878        C879   1.411       .  A
C879        C880   1.419       .  A
C880        C881   1.420       .  A
C880        H885   1.078       .  S
C881        C882   1.441       .  A
C882       Br883   1.915       .  S
C887        C888   1.420       .  A
C887        C892   1.383       .  A
C887        H894   1.068       .  S
C888        C889   1.390       .  A
C889        C890   1.396       .  A
C889       Br896   1.917       .  S
C890        C891   1.443       .  A
C890        H895   1.083       .  S
C891        C892   1.378       .  A
C892       Br893   1.898       .  S
C897        C898   1.380       .  A
C897        C902   1.403       .  A
C897        H904   1.084       .  S
C898        C899   1.419       .  A
C899        C900   1.392       .  A
C899       Br906   1.893   1_565  S
C900        C901   1.384       .  A
C900        H905   1.080       .  S
C901        C902   1.456       .  A
C902       Br903   1.907       .  S
C907        C908   1.431       .  A
C907        C912   1.417       .  A
C907        H914   1.074       .  S
C908        C909   1.413       .  A
C909        C910   1.393       .  A
C909       Br916   1.858       .  S
C910        C911   1.393       .  A
C910        H915   1.085       .  S
C911        C912   1.409       .  A
C912       Br913   1.917       .  S
C917        C918   1.430       .  A
C917        C922   1.406       .  A
C917        H924   1.082       .  S
C918        C919   1.351       .  A
C919        C920   1.403       .  A
C919       Br926   1.870       .  S
C920        C921   1.424       .  A
C920        H925   1.071       .  S
C921        C922   1.400       .  A
C922       Br923   1.921       .  S
C927        C928   1.370       .  A
C927        C932   1.376       .  A
C927        H934   1.079       .  S
C928        C929   1.439       .  A
C929        C930   1.419       .  A
C929       Br936   1.922       .  S
C930        C931   1.399       .  A
C930        H935   1.083       .  S
C931        C932   1.425       .  A
C932      Br1869   1.867       .  S
Br933      C1868   1.873       .  S
C937       C1640   1.458   1_544  A
C937        C942   1.414       .  A
C937       C1274   1.590   1_554  S
C938       C1639   1.459       .  A
C938        C939   1.461       .  A
C938        H957   1.070       .  S
C939        C940   1.399       .  A
C939        C961   1.597       .  S
C940        C941   1.433       .  A
C940        C947   1.396       .  A
C941       C1644   1.434       .  A
C941       C1648   1.431       .  A
C942       C1643   1.435   1_545  A
C942        C943   1.403       .  A
C943        C944   1.389       .  A
C943        H953   1.083       .  S
C944        C945   1.401       .  A
C944        H954   1.083       .  S
C945        C946   1.439   1_545  A
C945        C952   1.416       .  A
C946       C1643   1.433       .  A
C946       C1651   1.435       .  A
C947        C948   1.370       .  A
C947        H955   1.083       .  S
C948        C949   1.399       .  A
C948        H956   1.082       .  S
C949       C1648   1.436       .  A
C949        C950   1.400       .  A
C950       C1653   1.465       .  A
C950       C1052   1.610       .  S
C951       C1652   1.466       .  A
C951        C952   1.456   1_565  A
C951        H958   1.060   1_554  S
C952       C1293   1.596   1_554  S
C959        C960   1.513       .  S
C959        C965   1.522       .  S
C959        C963   1.635       .  S
C959       C1162   1.533       .  S
C960        H967   1.088       .  S
C960        C961   1.336       .  D
C961       C1196   1.610       .  S
C962       C1195   1.609   1_554  S
C962       C1200   1.602   1_554  S
C962        C964   1.443       .  S
C962        H968   1.109       .  S
C963        H969   1.079       .  S
C963       C1198   1.435       .  D
C964       C1152   1.503       .  S
C964       C1197   1.431   1_554  D
C965        H970   1.084       .  S
C965        C966   1.336       .  D
C966       C1071   1.594       .  S
C966       C1196   1.603       .  S
O971       Zr983   2.565       .  S
O971        C973   1.303       .  A
O972        C973   1.253       .  A
C973       C1165   1.507       .  S
O974       Zr986   2.536       .  S
O974        C976   1.298       .  A
O975      Zr1010   2.327       .  S
O975        C976   1.246       .  A
C976       C1132   1.489       .  S
O977       Zr986   2.502       .  S
O977        C979   1.294       .  A
O978      Zr1009   2.379       .  S
O978        C979   1.273       .  A
C979       C1145   1.493       .  S
O980       Zr983   2.562       .  S
O980        C982   1.310       .  A
O981        C982   1.268       .  A
C982       C1155   1.491       .  S
Zr983       O984   2.434       .  S
Zr983       O985   2.434       .  S
Zr983      O1013   2.301       .  S
Zr983      O1015   2.394       .  S
O984       H1027   0.990       .  S
O985       H1026   0.990       .  S
O985       H1030   0.990       .  S
Zr986       O987   2.434       .  S
Zr986       O988   2.434       .  S
Zr986       O989   2.298       .  S
Zr986      O1016   2.279       .  S
Zr986       O990   2.356       .  S
Zr986      O1014   2.371       .  S
O987       H1028   0.990       .  S
O987       H1031   0.990       .  S
O988       H1021   0.990       .  S
O989      Zr1009   2.260       .  S
O990      Zr1010   2.388       .  S
O990       H1017   0.954       .  S
O991      Zr1003   2.535       .  S
O991        C993   1.291       .  A
O992        C993   1.260       .  A
C993       C1092   1.513       .  S
O994      Zr1006   2.537       .  S
O994        C996   1.302       .  A
O995      Zr1477   2.300   1_545  S
O995        C996   1.262       .  A
C996       C1122   1.493       .  S
O997      Zr1006   2.509       .  S
O997        C999   1.295       .  A
O998      Zr1478   2.368   1_545  S
O998        C999   1.272       .  A
C999       C1112   1.476       .  S
O1000     Zr1003   2.526       .  S
O1000      C1002   1.295       .  A
O1001      C1002   1.263       .  A
C1002      C1105   1.500       .  S
Zr1003     O1004   2.437       .  S
Zr1003     O1005   2.437       .  S
Zr1003     O1481   2.280       .  S
Zr1003     O1483   2.364       .  S
O1004      H1024   0.990       .  S
O1004      H1029   0.990       .  S
O1005      H1025   0.990       .  S
Zr1006     O1007   2.434       .  S
Zr1006     O1008   2.438       .  S
Zr1006     O1012   2.287       .  S
Zr1006     O1484   2.289   1_545  S
Zr1006     O1011   2.399       .  S
Zr1006     O1482   2.368   1_545  S
O1007      H1023   0.990       .  S
O1008      H1022   0.990       .  S
O1008      H1032   0.990       .  S
Zr1009     O1463   2.318       .  S
Zr1009     O1480   2.238       .  S
Zr1009     O1014   2.382       .  S
Zr1010     O1466   2.363       .  S
Zr1010     O1016   2.247       .  S
Zr1010     O1479   2.388       .  S
O1011     Zr1478   2.388   1_545  S
O1011      H1019   0.964       .  S
O1012     Zr1477   2.239   1_545  S
O1013     Zr1471   2.294       .  S
O1014     Zr1474   2.362       .  S
O1014      H1018   0.967       .  S
O1015     Zr1471   2.376       .  S
O1015      H1020   0.969       .  S
O1016     Zr1474   2.290       .  S
C1033      C1034   1.524       .  S
C1033      C1039   1.524       .  S
C1033      C1037   1.632       .  S
C1033      C1102   1.576       .  S
C1034      H1041   1.086       .  S
C1034      C1035   1.334       .  D
C1035      C1082   1.584       .  S
C1035      C1270   1.624       .  S
C1036      C1269   1.639   1_554  S
C1036      C1274   1.613   1_554  S
C1036      C1038   1.456       .  S
C1036      H1042   1.112       .  S
C1037      H1043   1.070       .  S
C1037      C1272   1.426       .  D
C1038      C1095   1.531       .  S
C1038      C1271   1.426   1_554  D
C1039      H1044   1.071       .  S
C1039      C1040   1.336       .  D
C1040      C1171   1.586       .  S
C1040      C1270   1.612       .  S
C1045      C1046   1.535       .  S
C1045      C1051   1.525       .  S
C1045      C1049   1.645       .  S
C1045      C1142   1.574       .  S
C1046      H1053   1.084       .  S
C1046      C1047   1.326       .  D
C1047      C1069   1.601       .  S
C1047      C1282   1.597       .  S
C1048      C1281   1.595   1_554  S
C1048      C1286   1.629   1_554  S
C1048      C1050   1.435       .  S
C1048      H1054   1.088       .  S
C1049      H1055   1.059       .  S
C1049      C1284   1.443       .  D
C1050      C1135   1.543       .  S
C1050      C1283   1.443   1_554  D
C1051      H1056   1.077       .  S
C1051      C1052   1.334       .  D
C1052      C1282   1.629       .  S
C1057      C1058   1.507       .  S
C1057      C1063   1.499       .  S
C1057      C1061   1.658       .  S
C1057      C1125   1.528       .  S
C1058      H1065   1.093       .  S
C1058      C1059   1.324       .  D
C1059      C1186   1.597       .  S
C1059      C1294   1.638       .  S
C1060      C1293   1.636   1_554  S
C1060      C1298   1.642   1_554  S
C1060      C1062   1.446       .  S
C1060      H1066   1.110       .  S
C1061      H1067   1.077       .  S
C1061      C1296   1.430       .  D
C1062      C1115   1.525       .  S
C1062      C1295   1.431   1_554  D
C1063      H1068   1.094       .  S
C1063      C1064   1.318       .  D
C1064      C1084   1.592       .  S
C1064      C1294   1.645       .  S
C1069      C1070   1.470       .  A
C1069      C1074   1.419       .  A
C1070      H1089   1.073       .  S
C1071      C1072   1.421       .  A
C1072      C1079   1.405       .  A
C1073      C1074   1.436       .  A
C1073      C1078   1.441       .  A
C1074      C1075   1.404       .  A
C1075      C1076   1.386       .  A
C1075      H1085   1.082       .  S
C1076      C1077   1.403       .  A
C1076      H1086   1.082       .  S
C1077      C1078   1.435       .  A
C1077      C1084   1.422       .  A
C1079      C1080   1.391       .  A
C1079      H1087   1.083       .  S
C1080      C1081   1.403       .  A
C1080      H1088   1.083       .  S
C1081      C1082   1.420       .  A
C1083      C1084   1.460       .  A
C1083      H1090   1.075       .  S
C1091      C1092   1.397       .  A
C1091      C1096   1.383       .  A
C1091      H1098   1.084       .  S
C1092      C1093   1.415       .  A
C1093      C1094   1.437       .  A
C1093     Br1568   1.911       .  S
C1094      C1095   1.433       .  A
C1094      H1099   1.080       .  S
C1095      C1096   1.373       .  A
C1096     Br1097   1.795   1_655  S
Br1100     C1561   1.909       .  S
C1101      C1102   1.415       .  A
C1101      C1106   1.406       .  A
C1101      H1108   1.084       .  S
C1102      C1103   1.439       .  A
C1103      C1104   1.417       .  A
C1103     Br1110   1.930       .  S
C1104      C1105   1.404       .  A
C1104      H1109   1.084       .  S
C1105      C1106   1.414       .  A
C1106     Br1107   1.918   1_655  S
C1111      C1112   1.389       .  A
C1111      C1116   1.389       .  A
C1111      H1118   1.085       .  S
C1112      C1113   1.410       .  A
C1113      C1114   1.419       .  A
C1113     Br1588   1.914       .  S
C1114      C1115   1.421       .  A
C1114      H1119   1.080       .  S
C1115      C1116   1.435       .  A
C1116     Br1117   1.916       .  S
Br1120     C1581   1.914       .  S
C1121      C1122   1.418       .  A
C1121      C1126   1.381       .  A
C1121      H1128   1.066   1_545  S
C1122      C1123   1.391       .  A
C1123      C1124   1.399       .  A
C1123     Br1130   1.915       .  S
C1124      C1125   1.442       .  A
C1124      H1129   1.083       .  S
C1125      C1126   1.377       .  A
C1126     Br1127   1.897   1_545  S
C1131      C1132   1.380       .  A
C1131      C1136   1.399       .  A
C1131      H1138   1.084       .  S
C1132      C1133   1.431       .  A
C1133      C1134   1.394       .  A
C1133     Br1140   1.912       .  S
C1134      C1135   1.370       .  A
C1134      H1139   1.076       .  S
C1135      C1136   1.457       .  A
C1136     Br1137   1.935       .  S
C1141      C1142   1.430       .  A
C1141      C1146   1.414       .  A
C1141      H1148   1.073       .  S
C1142      C1143   1.409       .  A
C1143      C1144   1.392       .  A
C1143     Br1150   1.870       .  S
C1144      C1145   1.399       .  A
C1144      H1149   1.084       .  S
C1145      C1146   1.410       .  A
C1146     Br1147   1.919       .  S
C1151      C1152   1.430       .  A
C1151      C1156   1.400       .  A
C1151      H1158   1.079       .  S
C1152      C1153   1.353       .  A
C1153      C1154   1.403       .  A
C1153     Br1160   1.867       .  S
C1154      C1155   1.423       .  A
C1154      H1159   1.070   1_655  S
C1155      C1156   1.395       .  A
C1156     Br1157   1.919       .  S
C1161      C1162   1.371       .  A
C1161      C1166   1.380       .  A
C1161      H1168   1.077       .  S
C1162      C1163   1.438       .  A
C1163      C1164   1.419       .  A
C1163     Br1170   1.921       .  S
C1164      C1165   1.399       .  A
C1164      H1169   1.083       .  S
C1165      C1166   1.424       .  A
C1171      C1406   1.452   1_545  A
C1171      C1176   1.418       .  A
C1172      C1405   1.463       .  A
C1172      C1173   1.467       .  A
C1172      H1191   1.068   1_554  S
C1173      C1174   1.399       .  A
C1173      C1195   1.601   1_554  S
C1174      C1175   1.432       .  A
C1174      C1181   1.399       .  A
C1175      C1410   1.440       .  A
C1175      C1414   1.435       .  A
C1176      C1409   1.437   1_545  A
C1176      C1177   1.403       .  A
C1177      C1178   1.390       .  A
C1177      H1187   1.083       .  S
C1178      C1179   1.403       .  A
C1178      H1188   1.083       .  S
C1179      C1180   1.438   1_545  A
C1179      C1186   1.418       .  A
C1180      C1409   1.435       .  A
C1180      C1417   1.437       .  A
C1181      C1182   1.370       .  A
C1181      H1189   1.082       .  S
C1182      C1183   1.396       .  A
C1182      H1190   1.082       .  S
C1183      C1414   1.438       .  A
C1183      C1184   1.403       .  A
C1184      C1419   1.461       .  A
C1184      C1286   1.606   1_554  S
C1185      C1418   1.466       .  A
C1185      C1186   1.460   1_565  A
C1185      H1192   1.063       .  S
C1193      C1194   1.515       .  S
C1193      C1199   1.520       .  S
C1193      C1197   1.636       .  S
C1193      C1396   1.532       .  S
C1194      H1201   1.087       .  S
C1194      C1195   1.338       .  D
C1196      C1198   1.444       .  S
C1196      H1202   1.108       .  S
C1197      H1203   1.079       .  S
C1198      C1386   1.506       .  S
C1199      H1204   1.086       .  S
C1199      C1200   1.337       .  D
C1200      C1305   1.589   1_556  S
O1205     Zr1217   2.568       .  S
O1205      C1207   1.303       .  A
O1206      C1207   1.253       .  A
C1207      C1399   1.506       .  S
O1208     Zr1220   2.508       .  S
O1208      C1210   1.290       .  A
O1209     Zr1244   2.343       .  S
O1209      C1210   1.249       .  A
C1210      C1366   1.485       .  S
O1211     Zr1220   2.501       .  S
O1211      C1213   1.294       .  A
O1212     Zr1243   2.386       .  S
O1212      C1213   1.276       .  A
C1213      C1379   1.491       .  S
O1214     Zr1217   2.562       .  S
O1214      C1216   1.310       .  A
O1215      C1216   1.268       .  A
C1216      C1389   1.501       .  S
Zr1217     O1218   2.435       .  S
Zr1217     O1219   2.434       .  S
Zr1217     O1247   2.302       .  S
Zr1217     O1249   2.386       .  S
O1218      H1261   0.990       .  S
O1219      H1260   0.990       .  S
O1219      H1264   0.989       .  S
Zr1220     O1221   2.434       .  S
Zr1220     O1222   2.434       .  S
Zr1220     O1223   2.293       .  S
Zr1220     O1250   2.291       .  S
Zr1220     O1224   2.374       .  S
Zr1220     O1248   2.370       .  S
O1221      H1262   0.990       .  S
O1221      H1265   0.990       .  S
O1222      H1255   0.990       .  S
O1223     Zr1243   2.254       .  S
O1224     Zr1244   2.391       .  S
O1224      H1251   0.975       .  S
O1225     Zr1237   2.535       .  S
O1225      C1227   1.302       .  A
O1226      C1227   1.268       .  A
C1227      C1326   1.487       .  S
O1228     Zr1240   2.533       .  S
O1228      C1230   1.300       .  A
O1229     Zr1711   2.296   1_545  S
O1229      C1230   1.261       .  A
C1230      C1356   1.491       .  S
O1231     Zr1240   2.506       .  S
O1231      C1233   1.293       .  A
O1232     Zr1712   2.372   1_545  S
O1232      C1233   1.270       .  A
C1233      C1346   1.476       .  S
O1234     Zr1237   2.518       .  S
O1234      C1236   1.294       .  A
O1235      C1236   1.264       .  A
C1236      C1339   1.495       .  S
Zr1237     O1238   2.436       .  S
Zr1237     O1239   2.434       .  S
Zr1237     O1715   2.275       .  S
Zr1237     O1717   2.367   1_545  S
O1238      H1258   0.990       .  S
O1238      H1263   0.990       .  S
O1239      H1259   0.990       .  S
Zr1240     O1241   2.434       .  S
Zr1240     O1242   2.437       .  S
Zr1240     O1246   2.290       .  S
Zr1240     O1718   2.286   1_545  S
Zr1240     O1245   2.404       .  S
Zr1240     O1716   2.370   1_545  S
O1241      H1257   0.990       .  S
O1242      H1256   0.990       .  S
O1242      H1266   0.990       .  S
Zr1243     O1697   2.299       .  S
Zr1243     O1714   2.244       .  S
Zr1243     O1248   2.375       .  S
Zr1244     O1700   2.382       .  S
Zr1244     O1250   2.241       .  S
Zr1244     O1713   2.368       .  S
O1245     Zr1712   2.385   1_545  S
O1245      H1253   0.964       .  S
O1246     Zr1711   2.233   1_545  S
O1247     Zr1705   2.287       .  S
O1248     Zr1708   2.365       .  S
O1248      H1252   0.961       .  S
O1249     Zr1705   2.370       .  S
O1249      H1254   0.969       .  S
O1250     Zr1708   2.286       .  S
C1267      C1268   1.521       .  S
C1267      C1273   1.526       .  S
C1267      C1271   1.633       .  S
C1267      C1336   1.570       .  S
C1268      H1275   1.087       .  S
C1268      C1269   1.329       .  D
C1269      C1316   1.595   1_556  S
C1270      C1272   1.460       .  S
C1270      H1276   1.112       .  S
C1271      H1277   1.073       .  S
C1272      C1329   1.529       .  S
C1273      H1278   1.072       .  S
C1273      C1274   1.336       .  D
C1279      C1280   1.533       .  S
C1279      C1285   1.524       .  S
C1279      C1283   1.652       .  S
C1279      C1376   1.582       .  S
C1280      H1287   1.085       .  S
C1280      C1281   1.324       .  D
C1281      C1303   1.595       .  S
C1282      C1284   1.434       .  S
C1282      H1288   1.089       .  S
C1283      H1289   1.068       .  S
C1284      C1369   1.533       .  S
C1285      H1290   1.079       .  S
C1285      C1286   1.340       .  D
C1291      C1292   1.506       .  S
C1291      C1297   1.499       .  S
C1291      C1295   1.659       .  S
C1291      C1359   1.528       .  S
C1292      H1299   1.092       .  S
C1292      C1293   1.326       .  D
C1294      C1296   1.448       .  S
C1294      H1300   1.110       .  S
C1295      H1301   1.077       .  S
C1296      C1349   1.525       .  S
C1297      H1302   1.095       .  S
C1297      C1298   1.315       .  D
C1298      C1318   1.589   1_556  S
C1303      C1304   1.465       .  A
C1303      C1308   1.419       .  A
C1304      H1323   1.076       .  S
C1305      C1306   1.418       .  A
C1306      C1313   1.407       .  A
C1307      C1308   1.436   1_554  A
C1307      C1312   1.436       .  A
C1308      C1309   1.403       .  A
C1309      C1310   1.386       .  A
C1309      H1319   1.082       .  S
C1310      C1311   1.404   1_556  A
C1310      H1320   1.082       .  S
C1311      C1312   1.431       .  A
C1311      C1318   1.420       .  A
C1313      C1314   1.392       .  A
C1313      H1321   1.083       .  S
C1314      C1315   1.403       .  A
C1314      H1322   1.083       .  S
C1315      C1316   1.422       .  A
C1317      C1318   1.461       .  A
C1317      H1324   1.073   1_554  S
C1325      C1326   1.390       .  A
C1325      C1330   1.395       .  A
C1325      H1332   1.086       .  S
C1326      C1327   1.412       .  A
C1327      C1328   1.426       .  A
C1327     Br1802   1.907       .  S
C1328      C1329   1.422       .  A
C1328      H1333   1.077       .  S
C1329      C1330   1.397       .  A
C1330     Br1331   1.805   1_655  S
Br1334     C1795   1.910       .  S
C1335      C1336   1.416       .  A
C1335      C1340   1.405       .  A
C1335      H1342   1.083       .  S
C1336      C1337   1.433       .  A
C1337      C1338   1.413       .  A
C1337     Br1344   1.929   1_545  S
C1338      C1339   1.403       .  A
C1338      H1343   1.084       .  S
C1339      C1340   1.415       .  A
C1340     Br1341   1.919   1_655  S
C1345      C1346   1.389       .  A
C1345      C1350   1.389       .  A
C1345      H1352   1.085       .  S
C1346      C1347   1.411       .  A
C1347      C1348   1.419       .  A
C1347     Br1822   1.915       .  S
C1348      C1349   1.420       .  A
C1348      H1353   1.080       .  S
C1349      C1350   1.434       .  A
C1350     Br1351   1.913       .  S
Br1354     C1815   1.913       .  S
C1355      C1356   1.419       .  A
C1355      C1360   1.381       .  A
C1355      H1362   1.068   1_545  S
C1356      C1357   1.391       .  A
C1357      C1358   1.399       .  A
C1357     Br1364   1.916       .  S
C1358      C1359   1.443       .  A
C1358      H1363   1.084       .  S
C1359      C1360   1.376       .  A
C1360     Br1361   1.897   1_545  S
C1365      C1366   1.378       .  A
C1365      C1370   1.395       .  A
C1365      H1372   1.085       .  S
C1366      C1367   1.424       .  A
C1367      C1368   1.390       .  A
C1367     Br1374   1.874       .  S
C1368      C1369   1.367       .  A
C1368      H1373   1.077       .  S
C1369      C1370   1.453       .  A
C1370     Br1371   1.932       .  S
C1375      C1376   1.431       .  A
C1375      C1380   1.419       .  A
C1375      H1382   1.073       .  S
C1376      C1377   1.410       .  A
C1377      C1378   1.392       .  A
C1377     Br1384   1.856       .  S
C1378      C1379   1.394       .  A
C1378      H1383   1.085       .  S
C1379      C1380   1.411       .  A
C1380     Br1381   1.918       .  S
C1385      C1386   1.433       .  A
C1385      C1390   1.406       .  A
C1385      H1392   1.081       .  S
C1386      C1387   1.348       .  A
C1387      C1388   1.402       .  A
C1387     Br1394   1.878       .  S
C1388      C1389   1.424       .  A
C1388      H1393   1.066       .  S
C1389      C1390   1.398       .  A
C1390     Br1391   1.920       .  S
C1395      C1396   1.369       .  A
C1395      C1400   1.374       .  A
C1395      H1402   1.078       .  S
C1396      C1397   1.439       .  A
C1397      C1398   1.421       .  A
C1397     Br1404   1.921       .  S
C1398      C1399   1.401       .  A
C1398      H1403   1.083       .  S
C1399      C1400   1.423       .  A
C1405      C1410   1.429       .  A
C1405      C1742   1.602   1_554  S
C1406      C1407   1.458       .  A
C1406      H1425   1.065       .  S
C1407      C1408   1.410       .  A
C1407      C1429   1.594       .  S
C1408      C1409   1.436       .  A
C1408      C1415   1.400       .  A
C1410      C1411   1.405       .  A
C1411      C1412   1.398       .  A
C1411      H1421   1.083       .  S
C1412      C1413   1.406       .  A
C1412      H1422   1.083       .  S
C1413      C1414   1.436       .  A
C1413      C1420   1.424       .  A
C1415      C1416   1.379       .  A
C1415      H1423   1.083       .  S
C1416      C1417   1.402       .  A
C1416      H1424   1.082       .  S
C1417      C1418   1.412       .  A
C1418      C1520   1.610       .  S
C1419      C1420   1.463       .  A
C1419      H1426   1.064   1_554  S
C1420      C1761   1.596   1_554  S
C1427      C1428   1.513       .  S
C1427      C1433   1.517       .  S
C1427      C1431   1.639       .  S
C1427      C1630   1.543       .  S
C1428      H1435   1.088       .  S
C1428      C1429   1.343       .  D
C1429      C1664   1.621       .  S
C1430      C1663   1.626   1_554  S
C1430      C1668   1.618   1_554  S
C1430      C1432   1.446       .  S
C1430      H1436   1.109       .  S
C1431      H1437   1.077       .  S
C1431      C1666   1.424       .  D
C1432      C1620   1.510       .  S
C1432      C1665   1.421   1_554  D
C1433      H1438   1.084       .  S
C1433      C1434   1.334       .  D
C1434      C1539   1.593       .  S
C1434      C1664   1.610       .  S
O1439     Zr1451   2.594       .  S
O1439      C1441   1.308       .  A
O1440      C1441   1.252       .  A
C1441      C1633   1.522       .  S
O1442     Zr1454   2.531       .  S
O1442      C1444   1.297       .  A
O1443     Zr1478   2.327       .  S
O1443      C1444   1.247       .  A
C1444      C1600   1.485       .  S
O1445     Zr1454   2.511       .  S
O1445      C1447   1.296       .  A
O1446     Zr1477   2.370       .  S
O1446      C1447   1.274       .  A
C1447      C1613   1.491       .  S
O1448     Zr1451   2.536       .  S
O1448      C1450   1.305       .  A
O1449      C1450   1.270       .  A
C1450      C1623   1.492       .  S
Zr1451     O1452   2.435       .  S
Zr1451     O1453   2.437       .  S
Zr1451     O1481   2.305   1_565  S
Zr1451     O1483   2.380   1_565  S
O1452      H1495   0.990       .  S
O1453      H1494   0.990       .  S
O1453      H1498   0.990       .  S
Zr1454     O1455   2.435       .  S
Zr1454     O1456   2.435       .  S
Zr1454     O1457   2.297       .  S
Zr1454     O1484   2.282       .  S
Zr1454     O1458   2.356       .  S
Zr1454     O1482   2.363       .  S
O1455      H1496   0.990       .  S
O1455      H1499   0.990       .  S
O1456      H1489   0.990       .  S
O1457     Zr1477   2.257       .  S
O1458     Zr1478   2.393       .  S
O1458      H1485   0.955       .  S
O1459     Zr1471   2.514       .  S
O1459      C1461   1.291       .  A
O1460      C1461   1.251       .  A
C1461      C1560   1.479       .  S
O1462     Zr1474   2.537       .  S
O1462      C1464   1.302       .  A
O1463      C1464   1.264       .  A
C1464      C1590   1.496       .  S
O1465     Zr1474   2.507       .  S
O1465      C1467   1.295       .  A
O1466      C1467   1.272       .  A
C1467      C1580   1.474       .  S
O1468     Zr1471   2.520       .  S
O1468      C1470   1.293       .  A
O1469      C1470   1.261       .  A
C1470      C1573   1.496       .  S
Zr1471     O1472   2.437       .  S
Zr1471     O1473   2.434       .  S
O1472      H1492   0.990       .  S
O1472      H1497   0.990       .  S
O1473      H1493   0.990       .  S
Zr1474     O1475   2.434       .  S
Zr1474     O1476   2.437       .  S
Zr1474     O1480   2.284       .  S
Zr1474     O1479   2.400       .  S
O1475      H1491   0.990       .  S
O1476      H1490   0.990       .  S
O1476      H1500   0.990       .  S
Zr1477     O1482   2.385       .  S
Zr1478     O1484   2.249       .  S
O1479      H1487   0.964       .  S
O1482      H1486   0.964       .  S
O1483      H1488   0.968       .  S
C1501      C1502   1.522       .  S
C1501      C1507   1.518       .  S
C1501      C1505   1.643       .  S
C1501      C1570   1.574       .  S
C1502      H1509   1.088       .  S
C1502      C1503   1.328       .  D
C1503      C1550   1.573       .  S
C1503      C1738   1.616       .  S
C1504      C1737   1.626   1_554  S
C1504      C1742   1.638   1_554  S
C1504      C1506   1.458       .  S
C1504      H1510   1.112       .  S
C1505      H1511   1.078       .  S
C1505      C1740   1.429       .  D
C1506      C1563   1.529       .  S
C1506      C1739   1.425   1_554  D
C1507      H1512   1.069       .  S
C1507      C1508   1.332       .  D
C1508      C1639   1.586       .  S
C1508      C1738   1.624       .  S
C1513      C1514   1.531       .  S
C1513      C1519   1.530       .  S
C1513      C1517   1.647       .  S
C1513      C1610   1.578       .  S
C1514      H1521   1.081       .  S
C1514      C1515   1.322       .  D
C1515      C1537   1.595       .  S
C1515      C1750   1.596       .  S
C1516      C1749   1.591   1_554  S
C1516      C1754   1.627   1_554  S
C1516      C1518   1.431       .  S
C1516      H1522   1.090       .  S
C1517      H1523   1.067       .  S
C1517      C1752   1.439       .  D
C1518      C1603   1.540       .  S
C1518      C1751   1.442   1_554  D
C1519      H1524   1.078       .  S
C1519      C1520   1.336       .  D
C1520      C1750   1.630       .  S
C1525      C1526   1.515       .  S
C1525      C1531   1.493       .  S
C1525      C1529   1.664       .  S
C1525      C1593   1.533       .  S
C1526      H1533   1.092       .  S
C1526      C1527   1.322       .  D
C1527      C1654   1.619       .  S
C1527      C1762   1.655       .  S
C1528      C1761   1.636   1_554  S
C1528      C1766   1.646   1_554  S
C1528      C1530   1.445       .  S
C1528      H1534   1.109       .  S
C1529      H1535   1.072       .  S
C1529      C1764   1.443       .  D
C1530      C1583   1.525       .  S
C1530      C1763   1.431   1_554  D
C1531      H1536   1.093       .  S
C1531      C1532   1.315       .  D
C1532      C1552   1.599       .  S
C1532      C1762   1.661       .  S
C1537      C1538   1.465       .  A
C1537      C1542   1.417       .  A
C1538      H1557   1.077       .  S
C1539      C1540   1.414       .  A
C1540      C1547   1.406       .  A
C1541      C1542   1.437       .  A
C1541      C1546   1.440       .  A
C1542      C1543   1.402       .  A
C1543      C1544   1.383       .  A
C1543      H1553   1.082       .  S
C1544      C1545   1.401       .  A
C1544      H1554   1.082       .  S
C1545      C1546   1.436       .  A
C1545      C1552   1.415       .  A
C1547      C1548   1.387       .  A
C1547      H1555   1.083       .  S
C1548      C1549   1.401       .  A
C1548      H1556   1.083       .  S
C1549      C1550   1.416       .  A
C1551      C1552   1.469       .  A
C1551      H1558   1.081       .  S
C1559      C1560   1.378       .  A
C1559      C1564   1.400       .  A
C1559      H1566   1.085       .  S
C1560      C1561   1.403       .  A
C1561      C1562   1.412       .  A
C1562      C1563   1.411       .  A
C1562      H1567   1.069       .  S
C1563      C1564   1.450       .  A
C1564     Br1565   1.891       .  S
C1569      C1570   1.416       .  A
C1569      C1574   1.406       .  A
C1569      H1576   1.084       .  S
C1570      C1571   1.440       .  A
C1571      C1572   1.413       .  A
C1571     Br1578   1.929       .  S
C1572      C1573   1.400       .  A
C1572      H1577   1.084       .  S
C1573      C1574   1.417       .  A
C1574     Br1575   1.921   1_655  S
C1579      C1580   1.387       .  A
C1579      C1584   1.387       .  A
C1579      H1586   1.086       .  S
C1580      C1581   1.412       .  A
C1581      C1582   1.421       .  A
C1582      C1583   1.420       .  A
C1582      H1587   1.080       .  S
C1583      C1584   1.436       .  A
C1584     Br1585   1.913       .  S
C1589      C1590   1.420       .  A
C1589      C1594   1.385       .  A
C1589      H1596   1.065       .  S
C1590      C1591   1.394       .  A
C1591      C1592   1.399       .  A
C1591     Br1598   1.917       .  S
C1592      C1593   1.440       .  A
C1592      H1597   1.084       .  S
C1593      C1594   1.379       .  A
C1594     Br1595   1.898       .  S
C1599      C1600   1.380       .  A
C1599      C1604   1.397       .  A
C1599      H1606   1.084       .  S
C1600      C1601   1.430       .  A
C1601      C1602   1.391       .  A
C1601     Br1608   1.910   1_565  S
C1602      C1603   1.367       .  A
C1602      H1607   1.075       .  S
C1603      C1604   1.458       .  A
C1604     Br1605   1.939       .  S
C1609      C1610   1.429       .  A
C1609      C1614   1.417       .  A
C1609      H1616   1.077       .  S
C1610      C1611   1.419       .  A
C1611      C1612   1.393       .  A
C1611     Br1618   1.885       .  S
C1612      C1613   1.397       .  A
C1612      H1617   1.085       .  S
C1613      C1614   1.409       .  A
C1614     Br1615   1.918       .  S
C1619      C1620   1.435       .  A
C1619      C1624   1.406       .  A
C1619      H1626   1.076       .  S
C1620      C1621   1.357       .  A
C1621      C1622   1.392       .  A
C1621     Br1628   1.858       .  S
C1622      C1623   1.412       .  A
C1622      H1627   1.062   1_655  S
C1623      C1624   1.397       .  A
C1624     Br1625   1.915       .  S
C1629      C1630   1.371       .  A
C1629      C1634   1.381       .  A
C1629      H1636   1.075       .  S
C1630      C1631   1.440       .  A
C1631      C1632   1.426       .  A
C1631     Br1638   1.921       .  S
C1632      C1633   1.404       .  A
C1632      H1637   1.083       .  S
C1633      C1634   1.428       .  A
C1639      C1644   1.421       .  A
C1640      C1641   1.459       .  A
C1640      H1659   1.064       .  S
C1641      C1642   1.409   1_556  A
C1641      C1663   1.600       .  S
C1642      C1643   1.437       .  A
C1642      C1649   1.399       .  A
C1644      C1645   1.405       .  A
C1645      C1646   1.395       .  A
C1645      H1655   1.083       .  S
C1646      C1647   1.404       .  A
C1646      H1656   1.083       .  S
C1647      C1648   1.440       .  A
C1647      C1654   1.422       .  A
C1649      C1650   1.379       .  A
C1649      H1657   1.082       .  S
C1650      C1651   1.402       .  A
C1650      H1658   1.082       .  S
C1651      C1652   1.409       .  A
C1652      C1754   1.606   1_554  S
C1653      C1654   1.476       .  A
C1653      H1660   1.064       .  S
C1661      C1662   1.514       .  S
C1661      C1667   1.517       .  S
C1661      C1665   1.637       .  S
C1661      C1864   1.541       .  S
C1662      H1669   1.088       .  S
C1662      C1663   1.344       .  D
C1664      C1666   1.449       .  S
C1664      H1670   1.109       .  S
C1665      H1671   1.076       .  S
C1666      C1854   1.511       .  S
C1667      H1672   1.084       .  S
C1667      C1668   1.334       .  D
C1668      C1773   1.599       .  S
O1673     Zr1685   2.577       .  S
O1673      C1675   1.304       .  A
O1674      C1675   1.252       .  A
C1675      C1867   1.514       .  S
O1676     Zr1688   2.520       .  S
O1676      C1678   1.294       .  A
O1677     Zr1712   2.320       .  S
O1677      C1678   1.244       .  A
C1678      C1834   1.478       .  S
O1679     Zr1688   2.510       .  S
O1679      C1681   1.297       .  A
O1680     Zr1711   2.369       .  S
O1680      C1681   1.275       .  A
C1681      C1847   1.489       .  S
O1682     Zr1685   2.545       .  S
O1682      C1684   1.305       .  A
O1683      C1684   1.269       .  A
C1684      C1857   1.504       .  S
Zr1685     O1686   2.435       .  S
Zr1685     O1687   2.436       .  S
Zr1685     O1715   2.304   1_565  S
Zr1685     O1717   2.382       .  S
O1686      H1729   0.990       .  S
O1687      H1728   0.990       .  S
O1687      H1732   0.990       .  S
Zr1688     O1689   2.435       .  S
Zr1688     O1690   2.434       .  S
Zr1688     O1691   2.296       .  S
Zr1688     O1718   2.285       .  S
Zr1688     O1692   2.361       .  S
Zr1688     O1716   2.359       .  S
O1689      H1730   0.990       .  S
O1689      H1733   0.990       .  S
O1690      H1723   0.990       .  S
O1691     Zr1711   2.257       .  S
O1692     Zr1712   2.397       .  S
O1692      H1719   0.954       .  S
O1693     Zr1705   2.521       .  S
O1693      C1695   1.295       .  A
O1694      C1695   1.253       .  A
C1695      C1794   1.476       .  S
O1696     Zr1708   2.527       .  S
O1696      C1698   1.299       .  A
O1697      C1698   1.261       .  A
C1698      C1824   1.489       .  S
O1699     Zr1708   2.512       .  S
O1699      C1701   1.291       .  A
O1700      C1701   1.270       .  A
C1701      C1814   1.493       .  S
O1702     Zr1705   2.517       .  S
O1702      C1704   1.293       .  A
O1703      C1704   1.261       .  A
C1704      C1807   1.491       .  S
Zr1705     O1706   2.435       .  S
Zr1705     O1707   2.435       .  S
O1706      H1726   0.990       .  S
O1706      H1731   0.990       .  S
O1707      H1727   0.990       .  S
Zr1708     O1709   2.434       .  S
Zr1708     O1710   2.436       .  S
Zr1708     O1714   2.303       .  S
Zr1708     O1713   2.409       .  S
O1709      H1725   0.990       .  S
O1710      H1724   0.990       .  S
O1710      H1734   0.990       .  S
Zr1711     O1716   2.376       .  S
Zr1712     O1718   2.250       .  S
O1713      H1721   0.965       .  S
O1716      H1720   0.964       .  S
O1717      H1722   0.967   1_565  S
C1735      C1736   1.524       .  S
C1735      C1741   1.518       .  S
C1735      C1739   1.641       .  S
C1735      C1804   1.566       .  S
C1736      H1743   1.087       .  S
C1736      C1737   1.329       .  D
C1737      C1784   1.583       .  S
C1738      C1740   1.460       .  S
C1738      H1744   1.112       .  S
C1739      H1745   1.078       .  S
C1740      C1797   1.535       .  S
C1741      H1746   1.070       .  S
C1741      C1742   1.326       .  D
C1747      C1748   1.531       .  S
C1747      C1753   1.528       .  S
C1747      C1751   1.647       .  S
C1747      C1844   1.576       .  S
C1748      H1755   1.083       .  S
C1748      C1749   1.323       .  D
C1749      C1771   1.589   1_556  S
C1750      C1752   1.433       .  S
C1750      H1756   1.095       .  S
C1751      H1757   1.069       .  S
C1752      C1837   1.536       .  S
C1753      H1758   1.079       .  S
C1753      C1754   1.337       .  D
C1759      C1760   1.509       .  S
C1759      C1765   1.499       .  S
C1759      C1763   1.661       .  S
C1759      C1827   1.528       .  S
C1760      H1767   1.093       .  S
C1760      C1761   1.324       .  D
C1762      C1764   1.438       .  S
C1762      H1768   1.112       .  S
C1763      H1769   1.077       .  S
C1764      C1817   1.552       .  S
C1765      H1770   1.094       .  S
C1765      C1766   1.316       .  D
C1766      C1786   1.594   1_556  S
C1771      C1772   1.465       .  A
C1771      C1776   1.413       .  A
C1772      H1791   1.076   1_554  S
C1773      C1774   1.420   1_556  A
C1774      C1781   1.406       .  A
C1775      C1776   1.433       .  A
C1775      C1780   1.435       .  A
C1776      C1777   1.402       .  A
C1777      C1778   1.381       .  A
C1777      H1787   1.082       .  S
C1778      C1779   1.403       .  A
C1778      H1788   1.082       .  S
C1779      C1780   1.433       .  A
C1779      C1786   1.417       .  A
C1781      C1782   1.388       .  A
C1781      H1789   1.082       .  S
C1782      C1783   1.401   1_554  A
C1782      H1790   1.083       .  S
C1783      C1784   1.420       .  A
C1785      C1786   1.465       .  A
C1785      H1792   1.075   1_554  S
C1793      C1794   1.380       .  A
C1793      C1798   1.400       .  A
C1793      H1800   1.086       .  S
C1794      C1795   1.402       .  A
C1795      C1796   1.413       .  A
C1796      C1797   1.414       .  A
C1796      H1801   1.067       .  S
C1797      C1798   1.448       .  A
C1798     Br1799   1.890       .  S
C1803      C1804   1.411       .  A
C1803      C1808   1.401       .  A
C1803      H1810   1.084       .  S
C1804      C1805   1.440       .  A
C1805      C1806   1.412       .  A
C1805     Br1812   1.932       .  S
C1806      C1807   1.401       .  A
C1806      H1811   1.084       .  S
C1807      C1808   1.415       .  A
C1808     Br1809   1.919   1_655  S
C1813      C1814   1.383       .  A
C1813      C1818   1.396       .  A
C1813      H1820   1.086       .  S
C1814      C1815   1.415       .  A
C1815      C1816   1.427       .  A
C1816      C1817   1.420       .  A
C1816      H1821   1.078       .  S
C1817      C1818   1.444       .  A
C1818     Br1819   1.898       .  S
C1823      C1824   1.418       .  A
C1823      C1828   1.381       .  A
C1823      H1830   1.068       .  S
C1824      C1825   1.391       .  A
C1825      C1826   1.398       .  A
C1825     Br1832   1.916       .  S
C1826      C1827   1.442       .  A
C1826      H1831   1.084       .  S
C1827      C1828   1.377       .  A
C1828     Br1829   1.893       .  S
C1833      C1834   1.376       .  A
C1833      C1838   1.390       .  A
C1833      H1840   1.085       .  S
C1834      C1835   1.432       .  A
C1835      C1836   1.392       .  A
C1835     Br1842   1.906   1_565  S
C1836      C1837   1.365       .  A
C1836      H1841   1.074       .  S
C1837      C1838   1.452       .  A
C1838     Br1839   1.932       .  S
C1843      C1844   1.429       .  A
C1843      C1848   1.418       .  A
C1843      H1850   1.077       .  S
C1844      C1845   1.414       .  A
C1845      C1846   1.392       .  A
C1845     Br1852   1.880       .  S
C1846      C1847   1.397       .  A
C1846      H1851   1.085       .  S
C1847      C1848   1.411       .  A
C1848     Br1849   1.919       .  S
C1853      C1854   1.438       .  A
C1853      C1858   1.410       .  A
C1853      H1860   1.078       .  S
C1854      C1855   1.357       .  A
C1855      C1856   1.389       .  A
C1855     Br1862   1.873       .  S
C1856      C1857   1.416       .  A
C1856      H1861   1.056       .  S
C1857      C1858   1.399       .  A
C1858     Br1859   1.917       .  S
C1863      C1864   1.371       .  A
C1863      C1868   1.377       .  A
C1863      H1870   1.075       .  S
C1864      C1865   1.440       .  A
C1865      C1866   1.424       .  A
C1865     Br1872   1.921       .  S
C1866      C1867   1.402       .  A
C1866      H1871   1.083       .  S
C1867      C1868   1.426       .  A
